18
ModifiedRes-opt-3-1-13-14-083.log	Energy: -567275.7647404
N          0.97246       -0.88656        0.75750
H          0.59656       -0.86042        1.67992
C          0.60512        0.16553       -0.17616
H          0.71654       -0.24509       -1.17033
C          1.54431        1.37422       -0.02948
O          1.19128        2.37760        0.52328
C         -0.83473        0.61395        0.04412
S         -1.95647       -0.82138       -0.17722
C         -3.44854        0.00207       -0.10209
N         -4.45601        0.52719       -0.05340
H         -0.96675        1.02847        1.03135
H         -1.09271        1.37213       -0.67828
C          1.91553       -1.80861        0.47449
O          2.53896       -1.84873       -0.54774
N          2.76314        1.19580       -0.56700
H          2.05972       -2.53319        1.27303
H          3.05467        0.30572       -0.90851
H          3.44629        1.90536       -0.42103
