18
ModifiedRes-opt-3-7-8-9-101.log	Energy: -567277.2915707
N         -0.31079        0.91197        0.49822
H          0.26552        0.86272        1.30913
C         -0.57127       -0.29523       -0.26426
H         -0.70703        0.00652       -1.29384
C         -1.86035       -0.97940        0.22080
O         -1.82934       -2.00705        0.83952
C          0.58641       -1.28402       -0.16545
S          2.15207       -0.69400       -0.90880
C          2.75664        0.25166        0.37699
N          3.16014        0.88106        1.23470
H          0.76867       -1.58991        0.85311
H          0.34340       -2.17655       -0.72340
C         -0.82340        2.10819        0.15191
O         -1.58948        2.28065       -0.75488
N         -2.99034       -0.33614       -0.11687
H         -0.47609        2.92261        0.78333
H         -2.96705        0.56567       -0.54192
H         -3.85119       -0.68131        0.24503
