18
ModifiedRes-opt-1-3-7-8-059.log	Energy: -567277.1181503
N          0.68393        1.11846       -0.28969
H         -0.05833        1.22854       -0.94503
C          0.65526       -0.02333        0.60315
H          1.23541        0.24895        1.47669
C          1.30079       -1.27110       -0.01582
O          0.65401       -2.26539       -0.21083
C         -0.76041       -0.33300        1.07688
S         -1.91296       -0.77663       -0.28827
C         -3.01268        0.52794       -0.15070
N         -3.74748        1.39450       -0.09056
H         -0.73875       -1.17922        1.74473
H         -1.17108        0.51820        1.59774
C          1.73673        1.95332       -0.36570
O          2.75097        1.82737        0.26262
N          2.60722       -1.15851       -0.29266
H          1.58359        2.77425       -1.06286
H          3.11879       -0.32756       -0.08887
H          3.07395       -1.93712       -0.70086
