18
ModifiedRes-opt-13-1-3-7-289.log	Energy: -567272.3084898
N         -1.05772        1.14657       -0.74772
H         -0.88399        1.60220       -1.61574
C         -0.68299       -0.25258       -0.62796
H         -0.51884       -0.60306       -1.64093
C         -1.79865       -1.15249       -0.07473
O         -1.52203       -2.17725        0.47573
C          0.59688       -0.48441        0.17984
S          1.94983        0.50248       -0.57448
C          3.29392       -0.25531        0.14921
N          4.21126       -0.74091        0.61368
H          0.46814       -0.18457        1.20643
H          0.86123       -1.52707        0.13950
C         -1.32313        1.93166        0.32918
O         -1.44928        1.52205        1.44130
N         -3.06383       -0.78221       -0.36698
H         -1.43801        2.98380        0.07212
H         -3.27372        0.15979       -0.59865
H         -3.78583       -1.31458        0.06657
