18
ModifiedRes-opt-1-3-7-8-021.log	Energy: -567277.1181742
N          0.68341        1.11859       -0.28927
H         -0.05841        1.22793       -0.94523
C          0.65519       -0.02349        0.60321
H          1.23533        0.24881        1.47676
C          1.30109       -1.27098       -0.01601
O          0.65463       -2.26550       -0.21091
C         -0.76035       -0.33361        1.07698
S         -1.91316       -0.77692       -0.28815
C         -3.01245        0.52802       -0.15082
N         -3.74698        1.39483       -0.09080
H         -0.73845       -1.18012        1.74445
H         -1.17107        0.51728        1.59827
C          1.73624        1.95340       -0.36559
O          2.75058        1.82772        0.26265
N          2.60744       -1.15796       -0.29299
H          1.58293        2.77427       -1.06279
H          3.11880       -0.32692       -0.08908
H          3.07431       -1.93653       -0.70110
