%RWF=/scratch/bdw2292/Gau-ModifiedRes/,50GB
%Nosave
%Chk=ModifiedRes-opt-7-3-5-15-144.chk
%Mem=20GB
%Nproc=4
#P opt=(,maxcycle=400) HF/6-31G* MaxDisk=50GB

ModifiedRes Rotatable Bond Optimization on bme-nova.bme.utexas.edu

0 1
 N    0.928372   -0.994361    0.770368
 H    0.515912   -0.985212    1.699239
 C    0.606185    0.118541   -0.156787
 H    0.741160   -0.280785   -1.170768
 C    1.566624    1.330102    0.033861
 O    1.200480    2.440441   -0.357988
 C   -0.849048    0.591925    0.044614
 S   -2.030585   -0.811135   -0.121601
 C   -3.485547    0.066743   -0.165094
 N   -4.514751    0.653537   -0.198107
 H   -0.971326    1.050503    1.028563
 H   -1.083042    1.338600   -0.718380
 C    1.898749   -1.927300    0.544711
 O    2.607716   -1.929080   -0.462672
 N    2.781891    1.142596    0.616662
 H    1.992444   -2.685236    1.338545
 H    3.248931    0.246085    0.578321
 H    3.342535    1.978336    0.717613

7 3 5 15 F
1 3 5 6 F
1 3 5 15 F
7 3 5 6 F
3 1 13 14 F
7 3 1 13 F
5 3 1 13 F
1 3 7 8 F
5 3 7 8 F
3 7 8 9 F

