18
ModifiedRes-sp-1-3-7-8-154.log	Energy: -567363.4343186
N         -1.77883       -0.64327       -0.93981
H         -1.81041       -0.48151       -1.94213
C         -0.55129       -0.31034       -0.18475
H         -0.56912       -0.89346        0.74633
C         -0.56403        1.20194        0.16300
O          0.05294        2.02579       -0.51353
C          0.69865       -0.71493       -1.01888
S          2.27902        0.20813       -0.71393
C          2.74470       -0.62058        0.69691
N          3.03406       -1.18546        1.69912
H          0.91854       -1.77140       -0.84024
H          0.46810       -0.56291       -2.07612
C         -2.95471       -0.93762       -0.30923
O         -3.07626       -0.96550        0.92034
N         -1.32497        1.53997        1.23871
H         -3.79061       -1.15519       -0.99298
H         -1.90207        0.84627        1.70575
H         -1.34395        2.51630        1.49926
