18
ModifiedRes-opt-1-3-7-8-173.log	Energy: -567276.3265208
N          1.51167       -0.65424        1.05286
H          1.62101       -0.35845        1.99783
C          0.45097       -0.06081        0.25348
H          0.24717       -0.74890       -0.55415
C          0.92183        1.28761       -0.31162
O          0.62566        2.32179        0.22170
C         -0.78927        0.11787        1.12106
S         -2.26212        0.64083        0.17635
C         -2.72990       -0.87740       -0.45288
N         -3.05177       -1.88063       -0.88148
H         -1.02219       -0.79764        1.64452
H         -0.63387        0.91183        1.83729
C          2.48635       -1.40878        0.50257
O          2.56363       -1.67410       -0.66231
N          1.69261        1.19666       -1.40725
H          3.20983       -1.77052        1.23074
H          2.03518        0.31593       -1.72424
H          2.11484        2.02945       -1.75324
