18
ModifiedRes-opt-13-1-3-7-005.log	Energy: -567274.7666891
N          0.60585        0.83052        1.03505
H          0.03064        0.99180        1.83186
C          0.35989       -0.38381        0.28038
H         -0.16357       -1.05220        0.95445
C          1.64479       -1.13527       -0.10075
O          1.67026       -1.83579       -1.07060
C         -0.49342       -0.19211       -0.97866
S         -2.09396        0.64400       -0.68742
C         -2.80513       -0.45653        0.40777
N         -3.27203       -1.16950        1.16165
H          0.01118        0.44535       -1.68903
H         -0.67327       -1.14555       -1.44481
C          1.20718        1.91699        0.48611
O          1.76139        1.91697       -0.57032
N          2.66344       -1.04795        0.77907
H          1.16082        2.79831        1.12447
H          2.69841       -0.31445        1.44663
H          3.52528       -1.46382        0.50308
