%RWF=/scratch/bdw2292/Gau-ModifiedRes/,50GB
%Nosave
%Chk=ModifiedRes-opt-1-3-7-8-343.chk
%Mem=20GB
%Nproc=4
#P opt=(,maxcycle=400) HF/6-31G* MaxDisk=50GB

ModifiedRes Rotatable Bond Optimization on bme-nova.bme.utexas.edu

0 1
 N    1.012187   -0.952191    0.776642
 H    0.659875   -0.951744    1.729688
 C    0.593915    0.114018   -0.161280
 H    0.694450   -0.305879   -1.171530
 C    1.550192    1.327733   -0.004796
 O    1.194433    2.337778    0.607180
 C   -0.885289    0.554909    0.054403
 S   -1.926935   -0.625103    1.015617
 C   -3.455463    0.067477    0.743142
 N   -4.532832    0.529688    0.569188
 H   -0.906110    1.514828    0.575160
 H   -1.348079    0.661227   -0.930371
 C    2.022415   -1.825934    0.487282
 O    2.660557   -1.799993   -0.571562
 N    2.774670    1.195070   -0.580865
 H    2.216060   -2.567447    1.278517
 H    3.058899    0.316704   -1.005174
 H    3.412355    1.974561   -0.493843

1 3 7 8 F
5 3 7 8 F
3 1 13 14 F
7 3 1 13 F
5 3 1 13 F
7 3 5 15 F
1 3 5 6 F
1 3 5 15 F
7 3 5 6 F
3 7 8 9 F

