%RWF=/scratch/bdw2292/Gau-ModifiedRes/,50GB
%Nosave
%Chk=ModifiedRes-opt-1-3-7-8-305.chk
%Mem=20GB
%Nproc=4
#P opt=(,maxcycle=400) HF/6-31G* MaxDisk=50GB

ModifiedRes Rotatable Bond Optimization on bme-nova.bme.utexas.edu

0 1
 N    0.956564   -0.935364    0.761313
 H    0.574354   -0.917053    1.702507
 C    0.595584    0.141816   -0.184256
 H    0.710425   -0.278281   -1.192780
 C    1.558229    1.342175   -0.014095
 O    1.192811    2.351581    0.592696
 C   -0.861773    0.605565    0.027608
 S   -2.023650   -0.817582   -0.098085
 C   -3.491705    0.038407   -0.134627
 N   -4.529657    0.609866   -0.162069
 H   -0.964788    1.079009    1.006740
 H   -1.116055    1.333879   -0.746163
 C    1.948065   -1.836843    0.494847
 O    2.609013   -1.827468   -0.549969
 N    2.790350    1.196882   -0.569989
 H    2.100052   -2.586972    1.286957
 H    3.070800    0.313070   -0.985712
 H    3.434581    1.970115   -0.475624

1 3 7 8 F
5 3 7 8 F
3 1 13 14 F
7 3 1 13 F
5 3 1 13 F
7 3 5 15 F
1 3 5 6 F
1 3 5 15 F
7 3 5 6 F
3 7 8 9 F

