18
ModifiedRes-opt-1-3-7-8-154.log	Energy: -567276.3265226
N          1.51175       -0.65410        1.05291
H          1.62154       -0.35767        1.99764
C          0.45099       -0.06078        0.25353
H          0.24718       -0.74896       -0.55401
C          0.92171        1.28761       -0.31172
O          0.62551        2.32182        0.22153
C         -0.78922        0.11792        1.12114
S         -2.26209        0.64077        0.17640
C         -2.72971       -0.87751       -0.45281
N         -3.05165       -1.88070       -0.88150
H         -1.02209       -0.79754        1.64468
H         -0.63386        0.91197        1.83728
C          2.48642       -1.40866        0.50260
O          2.56346       -1.67426       -0.66222
N          1.69250        1.19660       -1.40733
H          3.21011       -1.77009        1.23071
H          2.03481        0.31586       -1.72454
H          2.11453        2.02939       -1.75355
