%RWF=/scratch/bdw2292/Gau-ModifiedRes/,50GB
%Nosave
%Chk=ModifiedRes-sp-13-1-3-7-251.chk
%Mem=20GB
%Nproc=4
#P MP2/6-311++G** SP SCF=(qc,maxcycle=800) Guess=Indo MaxDisk=50GB

ModifiedRes Rotatable Bond SP Calculation on bme-nova.bme.utexas.edu

0 1
 N   -0.913199    1.298402   -0.599900
 H   -0.163362    1.830722   -1.035042
 C   -0.618921   -0.157801   -0.618624
 H   -0.546743   -0.419354   -1.682964
 C   -1.697893   -1.124769   -0.005679
 O   -1.325608   -2.217220    0.434331
 C    0.706697   -0.520818    0.107637
 S    2.117951    0.432034   -0.589762
 C    3.421563   -0.470967    0.021543
 N    4.319838   -1.094086    0.478593
 H    0.629134   -0.298107    1.174563
 H    0.912922   -1.584176   -0.037748
 C   -1.822026    2.097049    0.040472
 O   -2.788538    1.735195    0.713486
 N   -3.022243   -0.840621   -0.070065
 H   -1.615927    3.167354   -0.130144
 H   -3.381077    0.102561   -0.073063
 H   -3.628732   -1.561881    0.297079

