18
ModifiedRes-sp-3-1-13-14-055.log	Energy: -567350.1584516
N          0.98295       -0.98393        0.61596
H          0.63480       -1.01106        1.56948
C          0.56249        0.13889       -0.24544
H          0.64547       -0.20926       -1.28389
C          1.50311        1.35865       -0.04326
O          1.11266        2.32907        0.61068
C         -0.89303        0.56153        0.04777
S         -2.03699       -0.85437       -0.22840
C         -3.52074       -0.04382       -0.05468
N         -4.54641        0.54230        0.03915
H         -0.99559        0.91412        1.07645
H         -1.17762        1.37346       -0.62564
C          1.94546       -1.87293        0.23443
O          3.08837       -1.55365       -0.10721
N          2.73580        1.29370       -0.61010
H          1.59678       -2.91763        0.23381
H          3.16160        0.39637       -0.81619
H          3.32805        2.10201       -0.47528
