18
ModifiedRes-sp-3-1-13-14-111.log	Energy: -567345.4900967
N          1.19998       -0.94710        0.46765
H          1.61853       -1.01305        1.38961
C          0.62519        0.24383       -0.18390
H          0.52570        0.03694       -1.25699
C          1.54572        1.46500        0.05493
O          2.09200        1.61973        1.14766
C         -0.76263        0.58924        0.38932
S         -1.90924       -0.84740        0.21802
C         -3.34925       -0.00998       -0.12465
N         -4.36214        0.55631       -0.36443
H         -0.67838        0.84008        1.45032
H         -1.19168        1.44018       -0.14579
C          1.58684       -2.02480       -0.27615
O          2.75909       -2.34707       -0.47345
N          1.64217        2.35479       -0.97007
H          0.74118       -2.58047       -0.71469
H          1.24709        2.17268       -1.88449
H          2.24140        3.15311       -0.80932
