18
ModifiedRes-sp-1-3-7-8-287.log	Energy: -567370.0025914
N          1.07999       -0.88124        0.85505
H          0.76248       -0.84619        1.81933
C          0.60008        0.13195       -0.10756
H          0.67037       -0.32359       -1.10493
C          1.50573        1.38538       -0.05421
O          1.11489        2.41225        0.50530
C         -0.86410        0.52612        0.18070
S         -1.98957       -0.83637       -0.33274
C         -3.47928       -0.04671       -0.11635
N         -4.50966        0.50844        0.07082
H         -1.01058        0.74169        1.24088
H         -1.11797        1.42504       -0.38591
C          2.06071       -1.77756        0.53776
O          2.62277       -1.80165       -0.56294
N          2.72064        1.26183       -0.65230
H          2.30823       -2.48251        1.34708
H          3.01443        0.37552       -1.05344
H          3.32924        2.06875       -0.63521
