18
ModifiedRes-opt-1-3-7-8-040.log	Energy: -567277.1181760
N          0.68358        1.11859       -0.28926
H         -0.05825        1.22800       -0.94521
C          0.65523       -0.02342        0.60322
H          1.23542        0.24877        1.47677
C          1.30096       -1.27104       -0.01593
O          0.65429       -2.26543       -0.21085
C         -0.76035       -0.33341        1.07699
S         -1.91305       -0.77674       -0.28827
C         -3.01254        0.52801       -0.15077
N         -3.74726        1.39466       -0.09068
H         -0.73854       -1.17985        1.74453
H         -1.17106        0.51758        1.59814
C          1.73648        1.95333       -0.36564
O          2.75084        1.82759        0.26254
N          2.60733       -1.15826       -0.29283
H          1.58316        2.77418       -1.06286
H          3.11878       -0.32721       -0.08916
H          3.07404       -1.93679       -0.70121
