18
ModifiedRes-sp-13-1-3-7-138.log	Energy: -567369.5925102
N          1.05460       -0.83365        0.84146
H          0.91088       -0.66486        1.83282
C          0.67490        0.18704       -0.15582
H          0.79394       -0.27096       -1.14725
C          1.61339        1.41003       -0.04782
O          1.22648        2.45457        0.47991
C         -0.78753        0.63937        0.03192
S         -1.93250       -0.79370       -0.13407
C         -3.41007        0.04679       -0.10581
N         -4.45413        0.60790       -0.08885
H         -0.92771        1.10065        1.01194
H         -1.04040        1.37394       -0.73629
C          1.78102       -1.94044        0.50650
O          2.16498       -2.16645       -0.64479
N          2.85798        1.23279       -0.56804
H          1.99454       -2.61721        1.34888
H          3.12341        0.35021       -0.99422
H          3.49431        2.01666       -0.51746
