%RWF=/scratch/bdw2292/Gau-ModifiedRes/,50GB
%Nosave
%Chk=ModifiedRes-opt-1-3-7-8-002.chk
%Mem=20GB
%Nproc=4
#P opt=(,maxcycle=400) HF/6-31G* MaxDisk=50GB

ModifiedRes Rotatable Bond Optimization on bme-nova.bme.utexas.edu

0 1
 N    1.032768   -0.957738    0.786219
 H    0.701689   -0.969745    1.745919
 C    0.591820    0.106182   -0.146246
 H    0.682224   -0.316462   -1.156499
 C    1.549229    1.321311   -0.000493
 O    1.197729    2.331168    0.613921
 C   -0.890729    0.544378    0.072966
 S   -1.804626   -0.279301    1.446222
 C   -3.379277    0.260691    1.099764
 N   -4.486190    0.623183    0.880217
 H   -0.927322    1.618337    0.268246
 H   -1.439079    0.317791   -0.845723
 C    2.046141   -1.822441    0.479631
 O    2.669391   -1.789569   -0.587966
 N    2.768865    1.191867   -0.587389
 H    2.258653   -2.562692    1.267283
 H    3.051015    0.315890   -1.017772
 H    3.405100    1.973047   -0.505098

1 3 7 8 F
5 3 7 8 F
3 1 13 14 F
7 3 1 13 F
5 3 1 13 F
7 3 5 15 F
1 3 5 6 F
1 3 5 15 F
7 3 5 6 F
3 7 8 9 F

