18
ModifiedRes-opt-7-3-5-15-106.log	Energy: -567275.7647398
N          0.97246       -0.88665        0.75743
H          0.59649       -0.86063        1.67982
C          0.60509        0.16552       -0.17615
H          0.71644       -0.24503       -1.17035
C          1.54426        1.37422       -0.02944
O          1.19123        2.37755        0.52343
C         -0.83473        0.61391        0.04430
S         -1.95647       -0.82142       -0.17709
C         -3.44854        0.00205       -0.10218
N         -4.45599        0.52721       -0.05364
H         -0.96666        1.02834        1.03158
H         -1.09278        1.37216       -0.67801
C          1.91564       -1.80858        0.47443
O          2.53912       -1.84861       -0.54778
N          2.76302        1.19592       -0.56714
H          2.05987       -2.53319        1.27293
H          3.05461        0.30585       -0.90863
H          3.44608        1.90558       -0.42128
