18
ModifiedRes-opt-13-1-3-7-138.log	Energy: -567275.7647385
N          0.97244       -0.88657        0.75746
H          0.59638       -0.86056        1.67981
C          0.60510        0.16553       -0.17622
H          0.71652       -0.24510       -1.17038
C          1.54424        1.37424       -0.02945
O          1.19121        2.37751        0.52349
C         -0.83473        0.61392        0.04414
S         -1.95644       -0.82143       -0.17710
C         -3.44854        0.00199       -0.10216
N         -4.45594        0.52726       -0.05358
H         -0.96669        1.02848        1.03137
H         -1.09276        1.37209       -0.67827
C          1.91561       -1.80856        0.47446
O          2.53908       -1.84868       -0.54774
N          2.76302        1.19593       -0.56714
H          2.05984       -2.53308        1.27304
H          3.05456        0.30588       -0.90874
H          3.44619        1.90546       -0.42122
