18
ModifiedRes-opt-1-3-7-8-078.log	Energy: -567277.1181735
N          0.68365        1.11861       -0.28930
H         -0.05826        1.22822       -0.94512
C          0.65522       -0.02345        0.60316
H          1.23540        0.24870        1.47672
C          1.30093       -1.27108       -0.01597
O          0.65432       -2.26557       -0.21054
C         -0.76037       -0.33340        1.07695
S         -1.91311       -0.77676       -0.28822
C         -3.01251        0.52805       -0.15085
N         -3.74711        1.39479       -0.09078
H         -0.73861       -1.17979        1.74457
H         -1.17106        0.51765        1.59803
C          1.73653        1.95336       -0.36553
O          2.75083        1.82753        0.26271
N          2.60723       -1.15818       -0.29325
H          1.58329        2.77432       -1.06264
H          3.11872       -0.32719       -0.08944
H          3.07399       -1.93688       -0.70123
