18
ModifiedRes-sp-13-1-3-7-062.log	Energy: -567357.0678548
N         -1.32396        1.19586        0.46392
H         -2.20392        1.20944        0.97322
C         -1.01471       -0.02882       -0.31757
H         -1.06126        0.26383       -1.37373
C         -2.07891       -1.12137       -0.02148
O         -1.81986       -2.08903        0.69428
C          0.38838       -0.63257       -0.00468
S          1.90103        0.38053       -0.28313
C          3.04730       -0.84606        0.00110
N          3.86522       -1.68366        0.19464
H          0.40287       -0.92046        1.05032
H          0.50331       -1.50876       -0.64990
C         -0.68361        2.40338        0.46776
O          0.30346        2.68607       -0.20753
N         -3.29439       -0.92657       -0.60244
H         -1.14513        3.13253        1.15425
H         -3.46552       -0.15305       -1.23374
H         -3.99440       -1.63507       -0.42793
