18
ModifiedRes-sp-1-3-7-8-059.log	Energy: -567371.2714965
N          0.67206        1.10460       -0.31294
H         -0.06338        1.19156       -1.00832
C          0.63526       -0.03079        0.63718
H          1.19106        0.27305        1.53563
C          1.33856       -1.25444       -0.00806
O          0.71112       -2.29121       -0.23370
C         -0.80038       -0.35692        1.09874
S         -1.93250       -0.79490       -0.30453
C         -3.01405        0.51212       -0.16021
N         -3.77649        1.41558       -0.07327
H         -0.76657       -1.19487        1.79801
H         -1.23870        0.50527        1.60817
C          1.72652        1.96772       -0.39749
O          2.74791        1.85389        0.28930
N          2.66364       -1.11586       -0.28284
H          1.59083        2.77706       -1.13211
H          3.17595       -0.28321       -0.00692
H          3.12854       -1.90827       -0.70445
