18
ModifiedRes-sp-3-7-8-9-161.log	Energy: -567369.8681776
N          0.88278       -0.88126        0.80104
H          0.36635       -0.86763        1.67573
C          0.62728        0.16085       -0.21514
H          0.81381       -0.29285       -1.19859
C          1.60696        1.34501       -0.02751
O          1.20261        2.42643        0.40549
C         -0.82752        0.67214       -0.15335
S         -1.99512       -0.68244       -0.58636
C         -3.41787       -0.02434        0.07052
N         -4.42424        0.41159        0.51984
H         -1.02897        1.09983        0.83090
H         -0.96235        1.45996       -0.89841
C          1.80049       -1.87442        0.61137
O          2.53660       -1.93123       -0.38028
N          2.89921        1.10528       -0.37673
H          1.83431       -2.62060        1.42079
H          3.18819        0.18872       -0.70728
H          3.55657        1.86537       -0.26740
