18
ModifiedRes-sp-3-7-8-9-341.log	Energy: -567367.4530731
N         -0.32698        0.60931        1.03007
H         -0.15477        0.24403        1.96201
C         -0.45018       -0.32495       -0.10870
H         -0.18113        0.23553       -1.01458
C         -1.91216       -0.81149       -0.23841
O         -2.22412       -1.94909        0.12332
C          0.49589       -1.53903        0.05203
S          2.29216       -1.11203        0.17656
C          2.39170        0.45939       -0.46818
N          2.48902        1.55309       -0.91241
H          0.21698       -2.09230        0.95217
H          0.37541       -2.17355       -0.82954
C         -0.59057        1.94442        0.90774
O         -0.96040        2.46459       -0.15073
N         -2.78810        0.08620       -0.76341
H         -0.44375        2.52173        1.83411
H         -2.48617        1.02911       -0.99385
H         -3.75061       -0.20616       -0.86257
