18
ModifiedRes-sp-1-3-7-8-249.log	Energy: -567366.3417802
N          1.32158       -0.86179        0.98372
H          1.17017       -0.74823        1.98175
C          0.60489        0.01654        0.03486
H          0.65179       -0.47894       -0.94367
C          1.32173        1.38382       -0.05887
O          0.97449        2.32058        0.66399
C         -0.87399        0.19122        0.48492
S         -1.99322       -0.65535       -0.70610
C         -3.48513       -0.15019       -0.06660
N         -4.51659        0.23370        0.37388
H         -1.00755       -0.22724        1.48399
H         -1.13006        1.25275        0.51296
C          2.38515       -1.62000        0.58196
O          2.78369       -1.65681       -0.58766
N          2.34552        1.44594       -0.95159
H          2.85458       -2.20488        1.38871
H          2.68586        0.60061       -1.40069
H          2.83188        2.32811       -1.03571
