18
ModifiedRes-sp-13-1-3-7-308.log	Energy: -567361.2860525
N         -1.06636        1.14334       -0.79146
H         -1.11004        1.52888       -1.73094
C         -0.78814       -0.30124       -0.64434
H         -0.71908       -0.71143       -1.65895
C         -1.94611       -1.00304        0.11560
O         -1.83057       -1.34939        1.29002
C          0.53615       -0.55730        0.11480
S          1.94039        0.22207       -0.78271
C          3.23665       -0.39430        0.12819
N          4.16352       -0.80612        0.74212
H          0.48171       -0.15505        1.13002
H          0.72048       -1.63195        0.17861
C         -1.09645        2.08054        0.20601
O         -0.89619        1.84659        1.39728
N         -3.08286       -1.20624       -0.60627
H         -1.32634        3.09570       -0.15799
H         -3.18781       -0.86754       -1.55421
H         -3.84371       -1.65419       -0.11390
