18
ModifiedRes-sp-13-1-3-7-232.log	Energy: -567354.6127089
N         -1.03376       -1.23513        0.22407
H         -0.27908       -1.91654        0.24103
C         -0.51478        0.13132        0.51101
H         -0.41375        0.17103        1.60391
C         -1.42044        1.35488        0.10963
O         -0.86862        2.43535       -0.12227
C          0.86041        0.42050       -0.15991
S          2.10967       -0.84586        0.31207
C          3.53929       -0.04923       -0.14594
N          4.52435        0.50743       -0.49761
H          0.75794        0.41898       -1.24772
H          1.22489        1.39284        0.18087
C         -2.18614       -1.80150       -0.25449
O         -3.27127       -1.26059       -0.47779
N         -2.77250        1.30026        0.13315
H         -2.05691       -2.88618       -0.41380
H         -3.31696        0.45003        0.16256
H         -3.24826        2.16188       -0.09860
