18
ModifiedRes-sp-3-7-8-9-221.log	Energy: -567369.1038761
N          1.08259       -0.94830        0.75462
H          0.78415       -1.03984        1.72155
C          0.55810        0.15508       -0.07604
H          0.51423       -0.20626       -1.11274
C          1.52564        1.36187       -0.00441
O          1.25617        2.33486        0.70394
C         -0.84871        0.59964        0.37881
S         -2.02561       -0.81369        0.28184
C         -3.39169       -0.00516       -0.32674
N         -4.32360        0.56840       -0.78219
H         -0.83229        0.94768        1.41406
H         -1.15918        1.43548       -0.25211
C          1.98401       -1.85442        0.27274
O          2.47463       -1.78459       -0.85991
N          2.65274        1.25968       -0.75790
H          2.24304       -2.65497        0.98367
H          2.86776        0.39789       -1.25175
H          3.29928        2.03631       -0.73228
