18
ModifiedRes-sp-13-1-3-7-100.log	Energy: -567365.7889023
N         -1.16177        0.93807        0.79461
H         -1.60794        0.70640        1.67753
C         -0.86903       -0.13176       -0.18293
H         -0.92800        0.32221       -1.18136
C         -1.92300       -1.26030       -0.07386
O         -1.64639       -2.32885        0.47293
C          0.53991       -0.72804        0.03544
S          1.86461        0.54442       -0.12081
C          3.21235       -0.49084       -0.04770
N          4.13984       -1.22981       -0.02668
H          0.60673       -1.18458        1.02560
H          0.72184       -1.49461       -0.72183
C         -1.04026        2.26627        0.49861
O         -0.67147        2.67937       -0.60242
N         -3.14118       -0.98323       -0.61213
H         -1.29646        2.94101        1.33079
H         -3.32666       -0.09882       -1.07027
H         -3.83838       -1.71361       -0.55968
