18
ModifiedRes-sp-3-1-13-14-251.log	Energy: -567340.8910152
N          1.21795        1.06885       -0.40220
H          1.64255        1.20895       -1.31222
C          0.78806       -0.20159        0.21165
H          0.63973       -0.03596        1.28637
C          1.86324       -1.28713       -0.02960
O          2.45051       -1.34447       -1.11048
C         -0.53257       -0.70597       -0.40258
S         -1.86436        0.56475       -0.23081
C         -3.17863       -0.47674        0.05960
N         -4.07118       -1.21902        0.30207
H         -0.39310       -0.91668       -1.46642
H         -0.86020       -1.61763        0.10339
C          1.44444        2.16518        0.37841
O          0.73205        3.16916        0.35012
N          2.05105       -2.18049        0.97932
H          2.33584        2.08496        1.02155
H          1.57041       -2.10456        1.86764
H          2.74195       -2.90055        0.81626
