%RWF=/scratch/bdw2292/Gau-ModifiedRes/,50GB
%Nosave
%Chk=ModifiedRes-sp-1-3-7-8-021.chk
%Mem=20GB
%Nproc=4
#P MP2/6-311++G** SP SCF=(qc,maxcycle=800) Guess=Indo MaxDisk=50GB

ModifiedRes Rotatable Bond SP Calculation on bme-nova.bme.utexas.edu

0 1
 N    0.684493    0.943173   -0.571444
 H    0.070283    0.886527   -1.377201
 C    0.585230   -0.070517    0.507290
 H    0.968491    0.396770    1.425651
 C    1.474503   -1.285474    0.126913
 O    0.970310   -2.397798   -0.047481
 C   -0.878029   -0.502735    0.816600
 S   -2.095864   -0.192876   -0.538770
 C   -3.098451    0.946198    0.231433
 N   -3.809996    1.740371    0.748549
 H   -0.891194   -1.572603    1.034228
 H   -1.237598    0.044707    1.691837
 C    1.671708    1.885913   -0.611634
 O    2.577486    1.951191    0.227045
 N    2.810155   -1.051898    0.018935
 H    1.593890    2.586505   -1.458004
 H    3.208770   -0.150001    0.262950
 H    3.394864   -1.838870   -0.227388

