18
ModifiedRes-opt-7-3-5-15-333.log	Energy: -567275.7647272
N          0.97226       -0.88669        0.75731
H          0.59600       -0.86075        1.67959
C          0.60510        0.16542       -0.17642
H          0.71680       -0.24521       -1.17055
C          1.54416        1.37415       -0.02946
O          1.19084        2.37742        0.52332
C         -0.83475        0.61388        0.04352
S         -1.95651       -0.82147       -0.17750
C         -3.44855        0.00198       -0.10183
N         -4.45599        0.52713       -0.05280
H         -0.96684        1.02876        1.03060
H         -1.09264        1.37186       -0.67914
C          1.91579       -1.80834        0.47461
O          2.53956       -1.84815       -0.54744
N          2.76317        1.19583       -0.56660
H          2.06002       -2.53294        1.27311
H          3.05482        0.30576       -0.90806
H          3.44620        1.90546       -0.42048
