18
ModifiedRes-opt-3-7-8-9-281.log	Energy: -567276.1065354
N          0.71174        0.70565       -1.05535
H          0.52638        0.43869       -1.99608
C          0.43396       -0.23647        0.01331
H          0.15834        0.34107        0.88493
C          1.69399       -1.05799        0.33429
O          1.82025       -2.18594       -0.05560
C         -0.69394       -1.19428       -0.35747
S         -2.28791       -0.39940       -0.76412
C         -2.66398        0.29659        0.74804
N         -2.92749        0.76725        1.74928
H         -0.43943       -1.76490       -1.24012
H         -0.85176       -1.90155        0.44152
C          1.23142        1.92694       -0.82488
O          1.56813        2.32928        0.25234
N          2.60962       -0.40605        1.06984
H          1.32404        2.53039       -1.72557
H          2.52728        0.57255        1.24343
H          3.48896       -0.84927        1.21772
