18
ModifiedRes-sp-1-3-7-8-268.log	Energy: -567368.1094562
N          1.21205       -0.86445        0.93070
H          0.96070       -0.82173        1.91395
C          0.59542        0.07958       -0.02489
H          0.63119       -0.40201       -1.01144
C          1.41293        1.39464       -0.07111
O          0.99345        2.41301        0.48356
C         -0.87731        0.37700        0.35629
S         -1.99677       -0.78826       -0.52474
C         -3.48961       -0.09249       -0.10362
N         -4.52202        0.38660        0.22762
H         -1.03387        0.28620        1.43239
H         -1.13260        1.39805        0.06402
C          2.23122       -1.69957        0.57011
O          2.71744       -1.72101       -0.56615
N          2.59000        1.33267       -0.74922
H          2.58389       -2.35809        1.37963
H          2.91561        0.45581       -1.14650
H          3.14011        2.17921       -0.79972
