18
ModifiedRes-sp-1-3-7-8-305.log	Energy: -567370.4129280
N          0.98899       -0.90732        0.75553
H          0.59958       -0.89803        1.69391
C          0.61606        0.16078       -0.19543
H          0.74374       -0.25713       -1.20348
C          1.55883        1.37546       -0.02093
O          1.16407        2.39419        0.55071
C         -0.84986        0.60128       -0.00144
S         -1.98985       -0.83868       -0.13582
C         -3.47290       -0.00859       -0.10573
N         -4.52089        0.54459       -0.08706
H         -0.98185        1.07768        0.97267
H         -1.11275        1.32384       -0.77762
C          1.95817       -1.82754        0.47344
O          2.59946       -1.82955       -0.58337
N          2.81067        1.22872       -0.53132
H          2.11954       -2.57269        1.26833
H          3.10326        0.34801       -0.94552
H          3.44470        2.00990       -0.43345
