%RWF=/scratch/bdw2292/Gau-ModifiedRes/,50GB
%Nosave
%Chk=ModifiedRes-sp-13-1-3-7-156.chk
%Mem=20GB
%Nproc=4
#P MP2/6-311++G** SP SCF=(qc,maxcycle=800) Guess=Indo MaxDisk=50GB

ModifiedRes Rotatable Bond SP Calculation on bme-nova.bme.utexas.edu

0 1
 N    0.972370   -0.926784    0.773386
 H    0.602408   -0.930888    1.719521
 C    0.600155    0.140531   -0.177230
 H    0.709892   -0.278860   -1.186708
 C    1.551749    1.352645   -0.023407
 O    1.170852    2.375821    0.549902
 C   -0.855609    0.604947    0.036892
 S   -2.017845   -0.806323   -0.181533
 C   -3.487552    0.044888   -0.112029
 N   -4.526689    0.613105   -0.067360
 H   -0.984964    1.028085    1.035504
 H   -1.102695    1.373591   -0.699185
 C    1.962477   -1.829294    0.504585
 O    2.613956   -1.826077   -0.546125
 N    2.794927    1.200428   -0.552396
 H    2.131358   -2.566723    1.305287
 H    3.081871    0.314605   -0.959353
 H    3.432555    1.980202   -0.467516

