%RWF=/scratch/bdw2292/Gau-ModifiedRes/,50GB
%Nosave
%Chk=ModifiedRes-sp-13-1-3-7-270.chk
%Mem=20GB
%Nproc=4
#P MP2/6-311++G** SP SCF=(qc,maxcycle=800) Guess=Indo MaxDisk=50GB

ModifiedRes Rotatable Bond SP Calculation on bme-nova.bme.utexas.edu

0 1
 N   -0.941131    1.268322   -0.698535
 H   -0.375064    1.771703   -1.377438
 C   -0.632360   -0.178982   -0.654396
 H   -0.525190   -0.481846   -1.704867
 C   -1.728784   -1.119779   -0.039321
 O   -1.383346   -2.196014    0.458270
 C    0.671906   -0.502655    0.119449
 S    2.081902    0.442869   -0.590412
 C    3.382580   -0.418325    0.084512
 N    4.278602   -1.011499    0.584182
 H    0.566949   -0.240150    1.175095
 H    0.891568   -1.568808    0.023245
 C   -1.667220    2.038555    0.165504
 O   -2.345262    1.606411    1.097038
 N   -3.044293   -0.805510   -0.177219
 H   -1.613194    3.114701   -0.066501
 H   -3.354199    0.154381   -0.165379
 H   -3.680220   -1.499245    0.193133

