18
ModifiedRes-opt-3-1-13-14-139.log	Energy: -567270.2714874
N          1.23202        0.88950       -0.27707
H          1.65991        0.82117       -1.17874
C          0.64085       -0.31569        0.24061
H          0.49962       -0.19757        1.30806
C          1.55344       -1.51100       -0.05885
O          2.12724       -1.58090       -1.10691
C         -0.71874       -0.60131       -0.41032
S         -1.83678        0.83250       -0.15581
C         -3.30737       -0.00601        0.06082
N         -4.29670       -0.54535        0.21504
H         -0.59476       -0.76320       -1.47110
H         -1.17665       -1.47675        0.02674
C          1.65190        1.92725        0.49799
O          2.32676        2.82579        0.10965
N          1.59963       -2.47126        0.88474
H          1.28662        1.87176        1.52432
H          1.22691       -2.34617        1.79699
H          2.18967       -3.25803        0.72440
