%RWF=/scratch/bdw2292/Gau-ModifiedRes/,50GB
%Nosave
%Chk=ModifiedRes-sp-3-7-8-9-341.chk
%Mem=20GB
%Nproc=4
#P MP2/6-311++G** SP SCF=(qc,maxcycle=800) Guess=Indo MaxDisk=50GB

ModifiedRes Rotatable Bond SP Calculation on bme-nova.bme.utexas.edu

0 1
 N    0.611704   -0.806928    0.731723
 H    0.478080   -0.891649    1.735008
 C    0.383865    0.496344    0.072642
 H    0.137220    0.286591   -0.977268
 C    1.674042    1.347186    0.122030
 O    1.767354    2.291323    0.910824
 C   -0.781308    1.268780    0.736407
 S   -2.408703    0.388155    0.713844
 C   -2.234810   -0.775532   -0.515199
 N   -2.140353   -1.594304   -1.365900
 H   -0.524224    1.476885    1.777919
 H   -0.913686    2.205517    0.189332
 C    1.148315   -1.873994    0.068118
 O    1.492009   -1.826914   -1.118212
 N    2.656495    0.979474   -0.743041
 H    1.247985   -2.784287    0.680034
 H    2.545706    0.158824   -1.332621
 H    3.510417    1.520278   -0.734524

