18
ModifiedRes-opt-3-1-13-14-027.log	Energy: -567275.7647360
N          0.97250       -0.88638        0.75760
H          0.59647       -0.86029        1.67997
C          0.60515        0.16555       -0.17619
H          0.71668       -0.24518       -1.17031
C          1.54431        1.37423       -0.02948
O          1.19137        2.37753        0.52349
C         -0.83467        0.61401        0.04398
S         -1.95640       -0.82135       -0.17715
C         -3.44848        0.00206       -0.10211
N         -4.45591        0.52727       -0.05346
H         -0.96671        1.02870        1.03114
H         -1.09259        1.37208       -0.67858
C          1.91535       -1.80866        0.47454
O          2.53868       -1.84901       -0.54774
N          2.76309        1.19585       -0.56721
H          2.05948       -2.53318        1.27315
H          3.05459        0.30579       -0.90882
H          3.44631        1.90531       -0.42114
