18
ModifiedRes-opt-13-1-3-7-100.log	Energy: -567275.7647046
N          0.97268       -0.88669        0.75738
H          0.59757       -0.86027        1.68012
C          0.60509        0.16559       -0.17597
H          0.71627       -0.24482       -1.17026
C          1.54410        1.37447       -0.02955
O          1.19041        2.37842        0.52180
C         -0.83474        0.61382        0.04480
S         -1.95637       -0.82155       -0.17675
C         -3.44847        0.00191       -0.10225
N         -4.45599        0.52698       -0.05399
H         -0.96659        1.02804        1.03219
H         -1.09295        1.37222       -0.67729
C          1.91583       -1.80861        0.47408
O          2.53884       -1.84875       -0.54839
N          2.76350        1.19552       -0.56548
H          2.06040       -2.53312        1.27262
H          3.05499        0.30576       -0.90784
H          3.44612        1.90585       -0.42095
