18
ModifiedRes-opt-13-1-3-7-327.log	Energy: -567272.3084904
N         -1.05755        1.14650       -0.74772
H         -0.88377        1.60207       -1.61576
C         -0.68296       -0.25271       -0.62793
H         -0.51880       -0.60322       -1.64088
C         -1.79876       -1.15242       -0.07470
O         -1.52237       -2.17717        0.47589
C          0.59684       -0.48457        0.17990
S          1.94974        0.50258       -0.57420
C          3.29391       -0.25542        0.14910
N          4.21136       -0.74111        0.61326
H          0.46797       -0.18485        1.20651
H          0.86127       -1.52720        0.13946
C         -1.32294        1.93165        0.32912
O         -1.44907        1.52209        1.44124
N         -3.06386       -0.78201       -0.36722
H         -1.43771        2.98380        0.07200
H         -3.27362        0.16007       -0.59869
H         -3.78592       -1.31421        0.06645
