18
ModifiedRes-opt-13-1-3-7-232.log	Energy: -567275.7647166
N          0.97262       -0.88630        0.75765
H          0.59716       -0.85970        1.68025
C          0.60514        0.16556       -0.17629
H          0.71656       -0.24533       -1.17034
C          1.54432        1.37417       -0.02953
O          1.19142        2.37738        0.52365
C         -0.83467        0.61399        0.04400
S         -1.95644       -0.82144       -0.17676
C         -3.44851        0.00203       -0.10224
N         -4.45584        0.52747       -0.05388
H         -0.96660        1.02882        1.03111
H         -1.09275        1.37190       -0.67868
C          1.91551       -1.80855        0.47454
O          2.53834       -1.84915       -0.54803
N          2.76310        1.19589       -0.56722
H          2.06011       -2.53279        1.27332
H          3.05451        0.30614       -0.90967
H          3.44608        1.90566       -0.42163
