18
ModifiedRes-opt-3-7-8-9-221.log	Energy: -567275.7647385
N          0.97249       -0.88650        0.75759
H          0.59652       -0.86031        1.67997
C          0.60515        0.16550       -0.17618
H          0.71668       -0.24518       -1.17032
C          1.54423        1.37427       -0.02950
O          1.19108        2.37765        0.52318
C         -0.83471        0.61386        0.04400
S         -1.95646       -0.82142       -0.17764
C         -3.44854        0.00195       -0.10196
N         -4.45588        0.52727       -0.05285
H         -0.96684        1.02824        1.03128
H         -1.09260        1.37216       -0.67832
C          1.91556       -1.80858        0.47467
O          2.53901       -1.84878       -0.54754
N          2.76311        1.19589       -0.56695
H          2.05974       -2.53309        1.27326
H          3.05473        0.30582       -0.90842
H          3.44621        1.90549       -0.42100
