18
ModifiedRes-sp-13-1-3-7-175.log	Energy: -567367.6054575
N          0.96071       -1.04893        0.57276
H          0.40322       -1.29037        1.38775
C          0.55564        0.10823       -0.25803
H          0.63847       -0.21346       -1.30425
C          1.49499        1.32627       -0.01933
O          1.10080        2.27775        0.66012
C         -0.89597        0.54043        0.04924
S         -2.05960       -0.85118       -0.26418
C         -3.53229       -0.02663       -0.06465
N         -4.57389        0.52250        0.06853
H         -0.99165        0.86519        1.08777
H         -1.17178        1.37411       -0.60082
C          2.13829       -1.73669        0.46232
O          3.02860       -1.48886       -0.35851
N          2.72999        1.29033       -0.58068
H          2.22636       -2.56269        1.18688
H          3.10319        0.42945       -0.96573
H          3.32892        2.08848       -0.41897
