18
ModifiedRes-opt-1-3-7-8-343.log	Energy: -567275.7647103
N          0.97226       -0.88655        0.75743
H          0.59647       -0.86037        1.67989
C          0.60509        0.16547       -0.17632
H          0.71646       -0.24525       -1.17043
C          1.54445        1.37399       -0.02935
O          1.19210        2.37679        0.52485
C         -0.83465        0.61411        0.04379
S         -1.95652       -0.82133       -0.17643
C         -3.44855        0.00230       -0.10233
N         -4.45596        0.52753       -0.05440
H         -0.96652        1.02934        1.03073
H         -1.09268        1.37177       -0.67919
C          1.91538       -1.80861        0.47442
O          2.53872       -1.84862       -0.54784
N          2.76277        1.19605       -0.56835
H          2.05967       -2.53314        1.27296
H          3.05417        0.30584       -0.90969
H          3.44637        1.90501       -0.42159
