%RWF=/scratch/bdw2292/Gau-ModifiedRes/,50GB
%Nosave
%Chk=ModifiedRes-opt-3-7-8-9-341.chk
%Mem=20GB
%Nproc=4
#P opt=(,maxcycle=400) HF/6-31G* MaxDisk=50GB

ModifiedRes Rotatable Bond Optimization on bme-nova.bme.utexas.edu

0 1
 N    1.009809   -0.923580    0.765978
 H    0.617345   -0.920978    1.702795
 C    0.630136    0.147760   -0.179502
 H    0.764723   -0.262272   -1.190283
 C    1.577383    1.356635    0.006568
 O    1.190461    2.357556    0.615613
 C   -0.842664    0.584253   -0.000229
 S   -2.090804   -0.774373   -0.137328
 C   -1.264536   -2.014265   -0.959364
 N   -0.684837   -2.855169   -1.559871
 H   -0.949969    1.056022    0.979669
 H   -1.067168    1.310793   -0.785161
 C    2.024482   -1.802546    0.508558
 O    2.703479   -1.770467   -0.524221
 N    2.817485    1.232016   -0.535983
 H    2.187109   -2.548162    1.302736
 H    3.113223    0.353308   -0.952391
 H    3.452245    2.011367   -0.429082

3 7 8 9 F
3 1 13 14 F
7 3 1 13 F
5 3 1 13 F
7 3 5 15 F
1 3 5 6 F
1 3 5 15 F
7 3 5 6 F
1 3 7 8 F
5 3 7 8 F

