18
ModifiedRes-sp-3-7-8-9-071.log	Energy: -567370.6840673
N         -0.24417        0.89918        0.52264
H          0.30492        0.84295        1.37566
C         -0.55029       -0.32348       -0.24811
H         -0.62834       -0.02783       -1.30340
C         -1.91053       -0.90553        0.20728
O         -1.95374       -1.95161        0.85971
C          0.55222       -1.40305       -0.10209
S          2.17005       -0.87471       -0.81712
C          2.66957        0.29103        0.31743
N          3.01782        1.07380        1.13940
H          0.64982       -1.67839        0.95018
H          0.24046       -2.28407       -0.66893
C         -0.67652        2.13546        0.13616
O         -1.41860        2.31500       -0.83669
N         -3.01213       -0.20124       -0.16650
H         -0.31216        2.96012        0.76851
H         -2.92193        0.66924       -0.68326
H         -3.91218       -0.56272        0.11814
