%RWF=/scratch/bdw2292/Gau-ModifiedRes/,50GB
%Nosave
%Chk=ModifiedRes-sp-13-1-3-7-062.chk
%Mem=20GB
%Nproc=4
#P MP2/6-311++G** SP SCF=(qc,maxcycle=800) Guess=Indo MaxDisk=50GB

ModifiedRes Rotatable Bond SP Calculation on bme-nova.bme.utexas.edu

0 1
 N    1.396869   -0.863441    0.660941
 H    2.187668   -0.621563    1.252571
 C    0.861667    0.204937   -0.221291
 H    1.099520   -0.099962   -1.247814
 C    1.559207    1.553695    0.107584
 O    0.976180    2.439173    0.733530
 C   -0.676771    0.417593   -0.083247
 S   -1.826907   -0.975223   -0.442769
 C   -3.281235   -0.094857   -0.347130
 N   -4.307980    0.496793   -0.285766
 H   -0.882530    0.726534    0.945506
 H   -0.948384    1.207751   -0.789717
 C    1.102990   -2.198174    0.678033
 O    0.306267   -2.759696   -0.070419
 N    2.838900    1.674775   -0.340243
 H    1.663156   -2.751841    1.449781
 H    3.276997    0.955239   -0.902824
 H    3.302635    2.551506   -0.143405

