18
ModifiedRes-opt-1-3-7-8-135.log	Energy: -567276.3264881
N          1.51183       -0.65392        1.05298
H          1.62247       -0.35628        1.99724
C          0.45103       -0.06072        0.25358
H          0.24709       -0.74908       -0.55379
C          0.92154        1.28766       -0.31194
O          0.62528        2.32193        0.22122
C         -0.78911        0.11797        1.12128
S         -2.26210        0.64066        0.17657
C         -2.72949       -0.87766       -0.45274
N         -3.05153       -1.88072       -0.88169
H         -1.02185       -0.79749        1.64489
H         -0.63374        0.91209        1.83734
C          2.48651       -1.40854        0.50263
O          2.56315       -1.67477       -0.66207
N          1.69254        1.19670       -1.40739
H          3.21059       -1.76937        1.23066
H          2.03470        0.31598       -1.72482
H          2.11411        2.02957       -1.75398
