18
ModifiedRes-opt-7-3-5-15-030.log	Energy: -567273.2497327
N         -1.09665        0.88745        0.76483
H         -0.96637        0.71090        1.73737
C         -0.79328       -0.17808       -0.16606
H         -0.88341        0.24929       -1.15702
C         -1.80857       -1.32929       -0.10956
O         -1.50264       -2.43107       -0.46549
C          0.61483       -0.74926        0.02109
S          1.86008        0.54890       -0.33694
C          3.25903       -0.31127        0.12393
N          4.20389       -0.86323        0.43377
H          0.75724       -1.09498        1.03600
H          0.76141       -1.57716       -0.65084
C         -1.21199        2.18641        0.37783
O         -1.23525        2.55893       -0.75381
N         -3.03911       -1.01035        0.33493
H         -1.30523        2.86786        1.22205
H         -3.30814       -0.06865        0.49585
H         -3.75078       -1.70077        0.24394
