18
ModifiedRes-opt-7-3-5-15-182.log	Energy: -567275.7647391
N          0.97248       -0.88658        0.75748
H          0.59673       -0.86037        1.67996
C          0.60512        0.16551       -0.17615
H          0.71654       -0.24507       -1.17034
C          1.54423        1.37424       -0.02943
O          1.19127        2.37745        0.52368
C         -0.83471        0.61391        0.04421
S         -1.95644       -0.82145       -0.17701
C         -3.44852        0.00202       -0.10222
N         -4.45591        0.52731       -0.05374
H         -0.96666        1.02846        1.03145
H         -1.09275        1.37208       -0.67820
C          1.91562       -1.80859        0.47447
O          2.53897       -1.84873       -0.54780
N          2.76291        1.19603       -0.56740
H          2.05992       -2.53310        1.27303
H          3.05446        0.30597       -0.90899
H          3.44606        1.90558       -0.42142
