%RWF=/scratch/bdw2292/Gau-ModifiedRes/,50GB
%Nosave
%Chk=ModifiedRes-sp-3-7-8-9-041.chk
%Mem=20GB
%Nproc=4
#P MP2/6-311++G** SP SCF=(qc,maxcycle=800) Guess=Indo MaxDisk=50GB

ModifiedRes Rotatable Bond SP Calculation on bme-nova.bme.utexas.edu

0 1
 N    0.379544    0.779602   -0.563447
 H   -0.039591    0.726059   -1.487265
 C    0.460668   -0.421172    0.289837
 H    0.393458   -0.085822    1.333485
 C    1.829631   -1.109177    0.061802
 O    1.908855   -2.123185   -0.636556
 C   -0.675882   -1.437603    0.002987
 S   -2.411920   -0.830179    0.237328
 C   -2.479667    0.759530   -0.366837
 N   -2.561835    1.869405   -0.779964
 H   -0.610374   -1.756671   -1.040777
 H   -0.492441   -2.291314    0.660083
 C    0.873948    1.989625   -0.165263
 O    1.478393    2.150528    0.901959
 N    2.894691   -0.523698    0.671266
 H    0.692508    2.809332   -0.877594
 H    2.788409    0.362471    1.157327
 H    3.799768   -0.953334    0.537054

