18
ModifiedRes-sp-3-1-13-14-027.log	Energy: -567363.9520842
N          0.98356       -0.95589        0.70179
H          0.61226       -0.94662        1.64711
C          0.58602        0.14071       -0.20571
H          0.68902       -0.24080       -1.23073
C          1.52859        1.35954       -0.02368
O          1.13537        2.35428        0.59080
C         -0.87338        0.57689        0.04301
S         -2.01801       -0.84258       -0.21133
C         -3.50014       -0.01890       -0.09421
N         -4.54776        0.52969       -0.01711
H         -0.99589        0.96264        1.05748
H         -1.14031        1.36759       -0.66210
C          1.95010       -1.86529        0.37851
O          2.89320       -1.63187       -0.38612
N          2.76934        1.25991       -0.56685
H          1.79982       -2.85006        0.84843
H          3.12711        0.36131       -0.87598
H          3.38431        2.05412       -0.45278
