18
ModifiedRes-sp-1-3-7-8-097.log	Energy: -567362.7874505
N         -1.30785       -1.12172       -0.57342
H         -0.77435       -1.34346       -1.40952
C         -0.71399       -0.22826        0.44619
H         -1.18367       -0.46451        1.41111
C         -1.05016        1.24677        0.08363
O         -0.23201        2.02328       -0.40202
C          0.82145       -0.48705        0.55802
S          2.07014        0.54372       -0.34493
C          3.42386       -0.40997        0.05263
N          4.34689       -1.11021        0.30831
H          1.07842       -0.40210        1.61789
H          0.99099       -1.50380        0.18885
C         -2.60528       -1.54431       -0.51097
O         -3.38458       -1.20774        0.38775
N         -2.33241        1.62018        0.34563
H         -2.90043       -2.21703       -1.33174
H         -3.01681        0.95208        0.68886
H         -2.58522        2.57415        0.12701
