18
ModifiedRes-opt-3-7-8-9-071.log	Energy: -567277.2915789
N         -0.31072        0.91190        0.49828
H          0.26496        0.86242        1.30962
C         -0.57130       -0.29519       -0.26433
H         -0.70709        0.00665       -1.29387
C         -1.86042       -0.97931        0.22076
O         -1.82951       -2.00719        0.83912
C          0.58623       -1.28414       -0.16565
S          2.15198       -0.69422       -0.90867
C          2.75637        0.25155        0.37715
N          3.15972        0.88104        1.23487
H          0.76822       -1.59038        0.85286
H          0.34323       -2.17649       -0.72391
C         -0.82296        2.10826        0.15183
O         -1.58861        2.28089       -0.75531
N         -2.99034       -0.33565       -0.11635
H         -0.47588        2.92257        0.78353
H         -2.96702        0.56612       -0.54148
H         -3.85126       -0.68099        0.24522
