18
ModifiedRes-sp-1-3-7-8-021.log	Energy: -567365.4080317
N          0.58255        0.95232       -0.52492
H          0.01692        0.83758       -1.35954
C          0.60866       -0.11632        0.50388
H          0.87544        0.36046        1.45789
C          1.69774       -1.15202        0.11292
O          1.38842       -2.32094       -0.13165
C         -0.77540       -0.79312        0.72736
S         -1.97490       -0.61648       -0.66768
C         -3.17820        0.30687        0.10393
N         -4.02874        0.94961        0.62150
H         -0.62245       -1.86062        0.89826
H         -1.25239       -0.35471        1.60787
C          1.40388        2.04243       -0.47972
O          2.25432        2.21096        0.40143
N          2.98066       -0.70153        0.07606
H          1.24532        2.76243       -1.29806
H          3.21750        0.23954        0.37631
H          3.69467       -1.37099       -0.17672
