18
ModifiedRes-opt-3-7-8-9-251.log	Energy: -567276.1064720
N          0.71246        0.70575       -1.05537
H          0.52731        0.43898       -1.99620
C          0.43395       -0.23632        0.01310
H          0.15813        0.34119        0.88470
C          1.69370       -1.05821        0.33428
O          1.82020       -2.18579       -0.05658
C         -0.69405       -1.19376       -0.35821
S         -2.28797       -0.39845       -0.76448
C         -2.66439        0.29623        0.74817
N         -2.92831        0.76610        1.74969
H         -0.43950       -1.76401       -1.24107
H         -0.85202       -1.90128        0.44053
C          1.23243        1.92687       -0.82457
O          1.56880        2.32900        0.25285
N          2.60877       -0.40705        1.07138
H          1.32563        2.53037       -1.72516
H          2.52715        0.57184        1.24385
H          3.48841       -0.85004        1.21826
