%RWF=/scratch/bdw2292/Gau-ModifiedRes/,50GB
%Nosave
%Chk=ModifiedRes-sp-13-1-3-7-308.chk
%Mem=20GB
%Nproc=4
#P MP2/6-311++G** SP SCF=(qc,maxcycle=800) Guess=Indo MaxDisk=50GB

ModifiedRes Rotatable Bond SP Calculation on bme-nova.bme.utexas.edu

0 1
 N    1.162606   -1.159008    0.198842
 H    1.262884   -2.021109   -0.330216
 C    0.686956    0.044685   -0.515810
 H    0.565984   -0.243009   -1.567027
 C    1.733843    1.186801   -0.413149
 O    1.566853    2.149891    0.333277
 C   -0.663048    0.551354    0.046660
 S   -1.942576   -0.762360   -0.100953
 C   -3.315188    0.124251    0.367864
 N   -4.292516    0.712925    0.690179
 H   -0.557661    0.844070    1.094824
 H   -0.994279    1.422127   -0.523392
 C    1.317828   -1.304529    1.551223
 O    1.082387   -0.430253    2.384383
 N    2.834527    1.045917   -1.202599
 H    1.687176   -2.302098    1.841627
 H    2.989060    0.222916   -1.771009
 H    3.524241    1.781739   -1.132927

