%RWF=/scratch/bdw2292/Gau-ModifiedRes/,50GB
%Nosave
%Chk=ModifiedRes-opt-13-1-3-7-062.chk
%Mem=20GB
%Nproc=4
#P opt=(,maxcycle=400) HF/6-31G* MaxDisk=50GB

ModifiedRes Rotatable Bond Optimization on bme-nova.bme.utexas.edu

0 1
 N    1.060293   -0.930789    0.793046
 H    0.634935   -0.845112    1.712584
 C    0.670003    0.095570   -0.208830
 H    1.561997    0.711245   -0.377385
 C   -0.481327    0.955572    0.383499
 O   -1.648431    0.793574    0.026450
 C    0.183695   -0.489450   -1.568431
 S    1.272223   -1.624485   -2.526432
 C    0.360827   -1.649534   -3.964594
 N   -0.257125   -1.682833   -4.977046
 H   -0.746314   -1.034267   -1.383002
 H   -0.001979    0.363390   -2.228197
 C    2.062697   -1.856820    0.724317
 O    2.837541   -1.992540   -0.220060
 N   -0.105246    1.878855    1.310272
 H    2.121052   -2.495577    1.621047
 H    0.867929    2.030654    1.547027
 H   -0.841971    2.453748    1.696533

7 3 1 13 F
5 3 1 13 F
3 1 13 14 F
7 3 5 15 F
1 3 5 6 F
1 3 5 15 F
7 3 5 6 F
1 3 7 8 F
5 3 7 8 F
3 7 8 9 F

