18
ModifiedRes-sp-3-7-8-9-311.log	Energy: -567369.9697984
N          0.54730        0.60585       -1.13496
H          0.35038        0.25075       -2.06583
C          0.40853       -0.28426        0.03574
H          0.10682        0.33961        0.88793
C          1.77276       -0.94055        0.35447
O          1.99225       -2.10993        0.02740
C         -0.64874       -1.38987       -0.20568
S         -2.31752       -0.69750       -0.57342
C         -2.48670        0.40940        0.70624
N         -2.60178        1.15183        1.62224
H         -0.35952       -2.00295       -1.06276
H         -0.67137       -2.02386        0.68331
C          0.95521        1.90387       -1.01726
O          1.29964        2.41005        0.05651
N          2.67153       -0.14906        0.99788
H          0.95710        2.46442       -1.96548
H          2.46555        0.83193        1.16636
H          3.57051       -0.55284        1.22264
