18
ModifiedRes-opt-1-3-7-8-211.log	Energy: -567273.7882318
N          1.56858       -1.04030        0.74877
H          1.39363       -1.17867        1.72001
C          0.63788       -0.22473       -0.01358
H          0.80132       -0.46717       -1.05429
C          0.95152        1.25861        0.23716
O          0.39973        1.87270        1.10531
C         -0.78960       -0.57764        0.39742
S         -1.96260        0.08523       -0.84387
C         -3.42143       -0.30740       -0.05548
N         -4.40516       -0.56926        0.45139
H         -0.90234       -1.65087        0.43369
H         -1.02152       -0.14047        1.35626
C          2.78339       -1.37177        0.26090
O          3.17983       -1.07546       -0.82932
N          1.89834        1.77146       -0.57114
H          3.37980       -1.95583        0.95886
H          2.47298        1.17192       -1.12257
H          2.23836        2.68368       -0.35950
