18
ModifiedRes-sp-3-1-13-14-359.log	Energy: -567370.5107203
N          1.00278       -0.90585        0.77617
H          0.62397       -0.86917        1.71814
C          0.61111        0.15441       -0.17607
H          0.72606       -0.26288       -1.18604
C          1.55108        1.37492       -0.02791
O          1.16146        2.39489        0.54502
C         -0.85225        0.59242        0.03915
S         -1.99016       -0.83912       -0.17651
C         -3.47410       -0.01306       -0.10598
N         -4.52262        0.53757       -0.06052
H         -0.98800        1.01405        1.03755
H         -1.11354        1.35577       -0.69750
C          1.97869       -1.81685        0.48822
O          2.60532       -1.82150       -0.57738
N          2.79368        1.23209       -0.56132
H          2.14666       -2.56364        1.28011
H          3.08411        0.34965       -0.97330
H          3.42499        2.01743       -0.48066
