18
ModifiedRes-sp-3-1-13-14-335.log	Energy: -567366.6375323
N          1.02897       -0.86248        0.80331
H          0.65125       -0.81071        1.74527
C          0.63428        0.17478       -0.17190
H          0.75111       -0.26370       -1.17270
C          1.56993        1.39998       -0.05050
O          1.17993        2.43193        0.49913
C         -0.83101        0.61087        0.03346
S         -1.96468       -0.82897       -0.15112
C         -3.44916       -0.00225       -0.09705
N         -4.49766        0.54947       -0.06245
H         -0.96847        1.05326        1.02263
H         -1.09528        1.35692       -0.71969
C          2.00764       -1.77466        0.53451
O          2.33303       -2.08768       -0.61408
N          2.81304        1.24491       -0.58206
H          2.46869       -2.22315        1.42852
H          3.08228        0.38701       -1.05408
H          3.44109        2.03422       -0.51522
