18
ModifiedRes-opt-3-1-13-14-223.log	Energy: -567270.2714867
N          1.23246        0.88943       -0.27676
H          1.66132        0.82109       -1.17797
C          0.64064       -0.31571        0.24028
H          0.49852       -0.19772        1.30763
C          1.55325       -1.51113       -0.05863
O          2.12782       -1.58095       -1.10628
C         -0.71843       -0.60099       -0.41189
S         -1.83680        0.83267       -0.15781
C         -3.30685       -0.00606        0.06157
N         -4.29582       -0.54554        0.21762
H         -0.59354       -0.76234       -1.47264
H         -1.17676       -1.47665        0.02430
C          1.65132        1.92730        0.49867
O          2.32657        2.82585        0.11102
N          1.59853       -2.47155        0.88481
H          1.28488        1.87186        1.52458
H          1.22513       -2.34654        1.79679
H          2.18850       -3.25843        0.72476
