18
ModifiedRes-sp-1-3-7-8-230.log	Energy: -567366.3859631
N          1.44690       -0.90609        0.95785
H          1.30877       -0.84934        1.96274
C          0.61590       -0.07116        0.06525
H          0.68825       -0.51677       -0.93553
C          1.18190        1.36835        0.01666
O          0.75992        2.23383        0.78730
C         -0.85967       -0.07732        0.55566
S         -1.98836       -0.45833       -0.84782
C         -3.47420       -0.22070       -0.05658
N         -4.50189       -0.02423        0.50096
H         -0.98179       -0.82278        1.34407
H         -1.12045        0.90490        0.95667
C          2.57422       -1.52865        0.50076
O          2.94405       -1.47457       -0.67751
N          2.16857        1.57526       -0.89596
H          3.12385       -2.09237        1.27111
H          2.58420        0.79044       -1.38932
H          2.55519        2.50747       -0.95353
