%RWF=/scratch/bdw2292/Gau-ModifiedRes/,50GB
%Nosave
%Chk=ModifiedRes-opt-7-3-5-15-068.chk
%Mem=20GB
%Nproc=4
#P opt=(,maxcycle=400) HF/6-31G* MaxDisk=50GB

ModifiedRes Rotatable Bond Optimization on bme-nova.bme.utexas.edu

0 1
 N    0.947925   -0.982281    0.767157
 H    0.550319   -0.980688    1.702808
 C    0.607366    0.116677   -0.160914
 H    0.738030   -0.292728   -1.172484
 C    1.559742    1.328060   -0.001523
 O    2.171269    1.762061   -0.975206
 C   -0.845206    0.590353    0.041070
 S   -2.035537   -0.809726   -0.102311
 C   -3.479804    0.085081   -0.152155
 N   -4.497979    0.690008   -0.188712
 H   -0.976973    1.066062    1.015105
 H   -1.082742    1.328656   -0.729952
 C    1.921287   -1.912984    0.532429
 O    2.626665   -1.939882   -0.475047
 N    1.680046    1.868217    1.244418
 H    2.020943   -2.658558    1.338447
 H    1.343816    1.402131    2.076738
 H    2.312531    2.654042    1.313333

7 3 5 15 F
1 3 5 6 F
1 3 5 15 F
7 3 5 6 F
3 1 13 14 F
7 3 1 13 F
5 3 1 13 F
1 3 7 8 F
5 3 7 8 F
3 7 8 9 F

