18
ModifiedRes-opt-1-3-7-8-002.log	Energy: -567275.7647404
N          0.97245       -0.88656        0.75749
H          0.59648       -0.86049        1.67988
C          0.60511        0.16555       -0.17617
H          0.71649       -0.24508       -1.17034
C          1.54428        1.37423       -0.02946
O          1.19124        2.37759        0.52334
C         -0.83471        0.61397        0.04421
S         -1.95642       -0.82138       -0.17713
C         -3.44852        0.00203       -0.10214
N         -4.45597        0.52720       -0.05356
H         -0.96665        1.02848        1.03146
H         -1.09272        1.37217       -0.67817
C          1.91552       -1.80862        0.47446
O          2.53893       -1.84876       -0.54777
N          2.76309        1.19584       -0.56705
H          2.05971       -2.53319        1.27300
H          3.05463        0.30578       -0.90863
H          3.44620        1.90544       -0.42118
