18
ModifiedRes-sp-3-7-8-9-101.log	Energy: -567370.7255049
N         -0.37571        0.91794        0.57200
H          0.23599        0.85863        1.38172
C         -0.57959       -0.26864       -0.28691
H         -0.76885        0.09746       -1.30548
C         -1.81884       -1.06502        0.18738
O         -1.68214       -2.15578        0.74662
C          0.66080       -1.18857       -0.29435
S          2.08990       -0.31231       -1.05688
C          2.91057        0.11688        0.36977
N          3.43572        0.44611        1.38079
H          0.86957       -1.53392        0.72036
H          0.45668       -2.06483       -0.91394
C         -0.98836        2.11223        0.32172
O         -1.81354        2.26982       -0.58578
N         -3.02472       -0.48893       -0.06406
H         -0.68910        2.92526        1.00182
H         -3.08228        0.42604       -0.50274
H         -3.84947       -0.99111        0.23494
