%RWF=/scratch/bdw2292/Gau-ModifiedRes/,50GB
%Nosave
%Chk=ModifiedRes-opt-3-1-13-14-055.chk
%Mem=20GB
%Nproc=4
#P opt=(,maxcycle=400) HF/6-31G* MaxDisk=50GB

ModifiedRes Rotatable Bond Optimization on bme-nova.bme.utexas.edu

0 1
 N    0.963217   -0.939920    0.741905
 H    0.594480   -0.912362    1.687646
 C    0.587610    0.132217   -0.201590
 H    0.685997   -0.293377   -1.209207
 C    1.556080    1.338072   -0.048758
 O    1.183993    2.345104    0.559114
 C   -0.864703    0.606074    0.020533
 S   -2.033612   -0.812574   -0.083687
 C   -3.500732    0.044920   -0.114227
 N   -4.538328    0.616886   -0.137156
 H   -0.962999    1.089934    0.994909
 H   -1.126379    1.331461   -0.753483
 C    1.944079   -1.849138    0.467864
 O    3.102355   -1.554539    0.157859
 N    2.788732    1.223707   -0.607528
 H    1.594169   -2.892026    0.524275
 H    3.204590    0.309847   -0.749038
 H    3.394448    2.026813   -0.505130

3 1 13 14 F
7 3 1 13 F
5 3 1 13 F
7 3 5 15 F
1 3 5 6 F
1 3 5 15 F
7 3 5 6 F
1 3 7 8 F
5 3 7 8 F
3 7 8 9 F

