18
ModifiedRes-sp-3-1-13-14-083.log	Energy: -567344.7212100
N          1.14158       -0.91485        0.53595
H          1.13518       -0.90910        1.55177
C          0.60967        0.24462       -0.19689
H          0.60563       -0.00692       -1.26862
C          1.49775        1.51156       -0.08196
O          1.04439        2.60147       -0.43478
C         -0.83322        0.59272        0.22002
S         -1.94225       -0.85805       -0.02457
C         -3.44466       -0.06320       -0.03205
N         -4.48513        0.50319       -0.00280
H         -0.87124        0.88564        1.27167
H         -1.19345        1.42264       -0.39374
C          1.65075       -2.00943       -0.08826
O          2.84205       -2.06206       -0.39736
N          2.76744        1.34889        0.38157
H          0.92823       -2.80962       -0.30948
H          3.19498        0.42949        0.43596
H          3.33625        2.18314        0.43432
