18
ModifiedRes-opt-13-1-3-7-024.log	Energy: -567275.6200499
N         -2.05448        0.43804       -0.42273
H         -2.12524        1.23836       -1.01274
C         -0.78121        0.20475        0.21179
H         -0.95196       -0.12376        1.22805
C         -0.02503        1.53367        0.18889
O         -0.18788        2.30520       -0.71579
C         -0.03117       -0.90338       -0.55214
S          1.44182       -1.59101        0.29132
C          2.67457       -0.56055       -0.28661
N          3.52424        0.10450       -0.64577
H         -0.69565       -1.75036       -0.63830
H          0.24645       -0.57533       -1.54338
C         -3.10895       -0.37508       -0.22595
O         -3.08378       -1.36416        0.44847
N          0.79626        1.76687        1.22595
H         -4.00566       -0.04579       -0.74872
H          0.99465        1.07266        1.90892
H          1.41002        2.54962        1.16557
