%RWF=/scratch/bdw2292/Gau-ModifiedRes/,50GB
%Nosave
%Chk=ModifiedRes-sp-1-3-7-8-343.chk
%Mem=20GB
%Nproc=4
#P MP2/6-311++G** SP SCF=(qc,maxcycle=800) Guess=Indo MaxDisk=50GB

ModifiedRes Rotatable Bond SP Calculation on bme-nova.bme.utexas.edu

0 1
 N    0.943439   -0.978911    0.632568
 H    0.490159   -1.052008    1.539041
 C    0.627951    0.155398   -0.264667
 H    0.838747   -0.184621   -1.287701
 C    1.550753    1.354411    0.083909
 O    1.118595    2.331719    0.699703
 C   -0.869126    0.582436   -0.168781
 S   -2.000339   -0.663478    0.586170
 C   -3.491107    0.096258    0.285231
 N   -4.522773    0.624432    0.037364
 H   -0.949425    1.499466    0.419145
 H   -1.229381    0.765645   -1.184592
 C    1.945836   -1.865693    0.358201
 O    2.666157   -1.782870   -0.643208
 N    2.840347    1.242129   -0.333448
 H    2.057632   -2.666706    1.105945
 H    3.169132    0.396558   -0.791268
 H    3.462569    2.010037   -0.121389

