%RWF=/scratch/bdw2292/Gau-ModifiedRes/,50GB
%Nosave
%Chk=ModifiedRes-opt-3-7-8-9-161.chk
%Mem=20GB
%Nproc=4
#P opt=(,maxcycle=400) HF/6-31G* MaxDisk=50GB

ModifiedRes Rotatable Bond Optimization on bme-nova.bme.utexas.edu

0 1
 N    0.957608   -0.937264    0.756436
 H    0.576125   -0.921795    1.697785
 C    0.596808    0.143473   -0.185711
 H    0.710673   -0.273356   -1.195563
 C    1.561033    1.341988   -0.011275
 O    1.197211    2.349710    0.599171
 C   -0.859761    0.608578    0.028419
 S   -2.025385   -0.812329   -0.100115
 C   -3.365451   -0.137049    0.698719
 N   -4.314264    0.309226    1.251115
 H   -0.968053    1.081102    1.007704
 H   -1.113185    1.338049   -0.744067
 C    1.948347   -1.837812    0.484795
 O    2.607311   -1.823706   -0.561505
 N    2.792923    1.197479   -0.567945
 H    2.101626   -2.591355    1.273361
 H    3.073503    0.314073   -0.984391
 H    3.438332    1.969189   -0.469232

3 7 8 9 F
3 1 13 14 F
7 3 1 13 F
5 3 1 13 F
7 3 5 15 F
1 3 5 6 F
1 3 5 15 F
7 3 5 6 F
1 3 7 8 F
5 3 7 8 F

