%RWF=/scratch/bdw2292/Gau-ModifiedRes/,50GB
%Nosave
%Chk=ModifiedRes-sp-3-1-13-14-335.chk
%Mem=20GB
%Nproc=4
#P MP2/6-311++G** SP SCF=(qc,maxcycle=800) Guess=Indo MaxDisk=50GB

ModifiedRes Rotatable Bond SP Calculation on bme-nova.bme.utexas.edu

0 1
 N    0.976359   -0.926059    0.777432
 H    0.586804   -0.902900    1.715706
 C    0.609700    0.151606   -0.164325
 H    0.733668   -0.251979   -1.178858
 C    1.561098    1.357609    0.013707
 O    1.178586    2.374612    0.595517
 C   -0.851815    0.601619    0.037874
 S   -2.003416   -0.813637   -0.213672
 C   -3.476485    0.032465   -0.148654
 N   -4.517347    0.598032   -0.107487
 H   -0.996185    1.009829    1.040661
 H   -1.095227    1.378314   -0.690919
 C    1.945382   -1.842290    0.488205
 O    2.281646   -2.118239   -0.666740
 N    2.808891    1.203523   -0.507068
 H    2.387914   -2.329681    1.371148
 H    3.072114    0.359413   -1.006536
 H    3.447226    1.980506   -0.403406

