18
ModifiedRes-opt-3-1-13-14-195.log	Energy: -567270.2714736
N          1.23209        0.88949       -0.27703
H          1.66074        0.82098       -1.17833
C          0.64029       -0.31565        0.24010
H          0.49816       -0.19757        1.30744
C          1.55279       -1.51121       -0.05871
O          2.12735       -1.58125       -1.10634
C         -0.71882       -0.60070       -0.41202
S         -1.83700        0.83312       -0.15781
C         -3.30716       -0.00541        0.06174
N         -4.29613       -0.54486        0.21789
H         -0.59396       -0.76196       -1.47279
H         -1.17728       -1.47635        0.02405
C          1.65266        1.92650        0.49873
O          2.32870        2.82448        0.11118
N          1.59805       -2.47150        0.88489
H          1.28664        1.87100        1.52479
H          1.22472       -2.34633        1.79688
H          2.18796       -3.25845        0.72495
