18
ModifiedRes-sp-1-3-7-8-192.log	Energy: -567370.9273947
N          1.49200       -0.68074        1.08298
H          1.62312       -0.39648        2.04939
C          0.43743       -0.03655        0.27486
H          0.20721       -0.72165       -0.55279
C          0.94968        1.30449       -0.30100
O          0.66952        2.37009        0.25550
C         -0.81914        0.18773        1.14274
S         -2.26608        0.66914        0.10434
C         -2.68588       -0.88798       -0.43622
N         -2.99063       -1.96683       -0.82132
H         -1.07937       -0.70914        1.71027
H         -0.63164        0.99362        1.85666
C          2.44898       -1.47420        0.51618
O          2.49344       -1.72219       -0.69358
N          1.72659        1.20533       -1.41254
H          3.17983       -1.88153        1.23276
H          2.00406        0.29434       -1.76701
H          2.06818        2.06617       -1.81731
