%RWF=/scratch/bdw2292/Gau-ModifiedRes/,50GB
%Nosave
%Chk=ModifiedRes-opt-7-3-5-15-238.chk
%Mem=20GB
%Nproc=4
#P opt=(,maxcycle=400) HF/6-31G* MaxDisk=50GB

ModifiedRes Rotatable Bond Optimization on bme-nova.bme.utexas.edu

0 1
 N    0.965000   -0.929841    0.763187
 H    0.599505   -0.911980    1.710472
 C    0.579384    0.132852   -0.185826
 H    0.684865   -0.298430   -1.190258
 C    1.541029    1.331464   -0.027109
 O    1.544679    1.970093    1.027678
 C   -0.871219    0.601415    0.019323
 S   -2.044263   -0.814550   -0.085107
 C   -3.502741    0.057500   -0.129959
 N   -4.532648    0.642994   -0.162620
 H   -0.975256    1.089633    0.991838
 H   -1.128248    1.321497   -0.761738
 C    1.965763   -1.810848    0.466097
 O    2.594901   -1.779929   -0.596984
 N    2.333843    1.611274   -1.094978
 H    2.157857   -2.560085    1.250248
 H    2.506603    0.896399   -1.791915
 H    2.963846    2.395343   -0.992350

7 3 5 15 F
1 3 5 6 F
1 3 5 15 F
7 3 5 6 F
3 1 13 14 F
7 3 1 13 F
5 3 1 13 F
1 3 7 8 F
5 3 7 8 F
3 7 8 9 F

