%RWF=/scratch/bdw2292/Gau-ModifiedRes/,50GB
%Nosave
%Chk=ModifiedRes-opt-13-1-3-7-005.chk
%Mem=20GB
%Nproc=4
#P opt=(,maxcycle=400) HF/6-31G* MaxDisk=50GB

ModifiedRes Rotatable Bond Optimization on bme-nova.bme.utexas.edu

0 1
 N    1.095337   -0.916634    0.771608
 H    0.655783   -0.752574    1.673669
 C    0.684645    0.060877   -0.273057
 H    0.880631    1.053023    0.151696
 C   -0.835875   -0.162044   -0.511239
 O   -1.246076   -0.741455   -1.516819
 C    1.396242    0.003763   -1.653436
 S    3.233351    0.200500   -1.620798
 C    3.489963    0.404287   -3.291069
 N    3.695925    0.548327   -4.450914
 H    1.157612   -0.937834   -2.152889
 H    1.005367    0.820585   -2.266561
 C    2.068046   -1.875933    0.840769
 O    2.887258   -2.153315   -0.029720
 N   -1.665451    0.319614    0.456406
 H    2.055628   -2.411102    1.805694
 H   -1.335677    0.915337    1.205814
 H   -2.653309    0.165679    0.305146

7 3 1 13 F
5 3 1 13 F
3 1 13 14 F
7 3 5 15 F
1 3 5 6 F
1 3 5 15 F
7 3 5 6 F
1 3 7 8 F
5 3 7 8 F
3 7 8 9 F

