18
ModifiedRes-opt-1-3-7-8-268.log	Energy: -567275.7647159
N          0.97257       -0.88672        0.75744
H          0.59803       -0.85978        1.68040
C          0.60504        0.16555       -0.17595
H          0.71620       -0.24497       -1.17018
C          1.54422        1.37426       -0.02950
O          1.19119        2.37771        0.52315
C         -0.83479        0.61387        0.04479
S         -1.95649       -0.82151       -0.17658
C         -3.44857        0.00206       -0.10242
N         -4.45606        0.52717       -0.05438
H         -0.96663        1.02820        1.03212
H         -1.09305        1.37217       -0.67740
C          1.91592       -1.80848        0.47424
O          2.53887       -1.84869       -0.54827
N          2.76303        1.19583       -0.56702
H          2.06069       -2.53284        1.27286
H          3.05443        0.30594       -0.90912
H          3.44601        1.90566       -0.42172
