18
ModifiedRes-sp-1-3-7-8-173.log	Energy: -567369.2290379
N         -1.67829       -0.53485       -1.06620
H         -1.77991       -0.19798       -2.01911
C         -0.48764       -0.14850       -0.28165
H         -0.37430       -0.89202        0.51946
C         -0.70539        1.24990        0.34672
O         -0.23840        2.25880       -0.18858
C          0.76246       -0.16535       -1.19078
S          2.27626        0.51166       -0.36775
C          2.67691       -0.88013        0.52429
N          2.95954       -1.87103        1.11119
H          0.98605       -1.18389       -1.51882
H          0.57063        0.44894       -2.07397
C         -2.76052       -1.13255       -0.48459
O         -2.81748       -1.40654        0.71904
N         -1.45391        1.26974        1.48192
H         -3.58197       -1.35645       -1.18362
H         -1.89777        0.42168        1.82286
H         -1.60214        2.16781        1.92122
