%RWF=/scratch/bdw2292/Gau-ModifiedRes/,50GB
%Nosave
%Chk=ModifiedRes-opt-7-3-5-15-125.chk
%Mem=20GB
%Nproc=4
#P opt=(,maxcycle=400) HF/6-31G* MaxDisk=50GB

ModifiedRes Rotatable Bond Optimization on bme-nova.bme.utexas.edu

0 1
 N    0.934492   -1.008527    0.764598
 H    0.523446   -1.004107    1.694458
 C    0.611171    0.106489   -0.156072
 H    0.747504   -0.296097   -1.168819
 C    1.560396    1.326035    0.025505
 O    1.358718    2.326566   -0.665130
 C   -0.839653    0.586604    0.046401
 S   -2.032884   -0.807489   -0.114240
 C   -3.479650    0.083766   -0.158092
 N   -4.502582    0.681292   -0.191164
 H   -0.961344    1.049448    1.028688
 H   -1.069785    1.333471   -0.718295
 C    1.906047   -1.939013    0.524073
 O    2.614773   -1.942308   -0.481689
 N    2.581586    1.271343    0.923893
 H    2.000341   -2.699682    1.315762
 H    2.907834    0.405108    1.328265
 H    3.160889    2.098700    0.972458

7 3 5 15 F
1 3 5 6 F
1 3 5 15 F
7 3 5 6 F
3 1 13 14 F
7 3 1 13 F
5 3 1 13 F
1 3 7 8 F
5 3 7 8 F
3 7 8 9 F

