18
ModifiedRes-opt-3-7-8-9-131.log	Energy: -567277.2916548
N         -0.31077        0.91205        0.49829
H          0.26467        0.86262        1.30981
C         -0.57139       -0.29524       -0.26391
H         -0.70706        0.00638       -1.29356
C         -1.86075       -0.97934        0.22057
O         -1.83033       -2.00888        0.83621
C          0.58615       -1.28421       -0.16493
S          2.15186       -0.69454       -0.90840
C          2.75662        0.25140        0.37709
N          3.15971        0.88097        1.23489
H          0.76831       -1.58985        0.85371
H          0.34288       -2.17685       -0.72256
C         -0.82237        2.10851        0.15133
O         -1.58783        2.28116       -0.75595
N         -2.99028       -0.33371       -0.11382
H         -0.47495        2.92289        0.78273
H         -2.96688        0.56756       -0.53993
H         -3.85160       -0.68020        0.24562
