18
ModifiedRes-opt-13-1-3-7-251.log	Energy: -567272.3084854
N         -1.05768        1.14650       -0.74779
H         -0.88419        1.60191       -1.61597
C         -0.68312       -0.25271       -0.62795
H         -0.51904       -0.60326       -1.64091
C         -1.79889       -1.15239       -0.07460
O         -1.52243       -2.17741        0.47549
C          0.59675       -0.48458        0.17982
S          1.94969        0.50229       -0.57457
C          3.29379       -0.25545        0.14917
N          4.21110       -0.74106        0.61372
H          0.46808       -0.18470        1.20640
H          0.86103       -1.52725        0.13943
C         -1.32254        1.93182        0.32904
O         -1.44825        1.52244        1.44128
N         -3.06400       -0.78167       -0.36636
H         -1.43741        2.98393        0.07180
H         -3.27384        0.16020       -0.59850
H         -3.78611       -1.31417        0.06683
