18
ModifiedRes-opt-7-3-5-15-144.log	Energy: -567275.7647046
N          0.97234       -0.88682        0.75737
H          0.59617       -0.86097        1.67969
C          0.60513        0.16546       -0.17604
H          0.71650       -0.24499       -1.17030
C          1.54428        1.37422       -0.02931
O          1.19103        2.37780        0.52295
C         -0.83473        0.61391        0.04436
S         -1.95649       -0.82134       -0.17758
C         -3.44854        0.00213       -0.10201
N         -4.45620        0.52684       -0.05310
H         -0.96681        1.02801        1.03177
H         -1.09271        1.37240       -0.67771
C          1.91580       -1.80853        0.47449
O          2.53948       -1.84836       -0.54759
N          2.76308        1.19572       -0.56670
H          2.05988       -2.53323        1.27293
H          3.05457        0.30564       -0.90823
H          3.44595        1.90572       -0.42174
