%RWF=/scratch/bdw2292/Gau-ModifiedRes/,50GB
%Nosave
%Chk=ModifiedRes-opt-7-3-5-15-314.chk
%Mem=20GB
%Nproc=4
#P opt=(,maxcycle=400) HF/6-31G* MaxDisk=50GB

ModifiedRes Rotatable Bond Optimization on bme-nova.bme.utexas.edu

0 1
 N    0.957565   -0.937694    0.752387
 H    0.583748   -0.917738    1.696572
 C    0.582708    0.133847   -0.199297
 H    0.698668   -0.290166   -1.205693
 C    1.549720    1.346329   -0.040474
 O    2.573352    1.258428    0.636215
 C   -0.878487    0.585088    0.016620
 S   -2.041613   -0.841509   -0.096169
 C   -3.500864    0.030222   -0.118537
 N   -4.527119    0.622287   -0.135218
 H   -0.988281    1.064943    0.992573
 H   -1.163715    1.309446   -0.747511
 C    1.951748   -1.838475    0.489344
 O    2.607990   -1.851390   -0.555785
 N    1.207143    2.503682   -0.674663
 H    2.111300   -2.572997    1.295484
 H    0.557225    2.525133   -1.449985
 H    1.855212    3.268864   -0.544062

7 3 5 15 F
1 3 5 6 F
1 3 5 15 F
7 3 5 6 F
3 1 13 14 F
7 3 1 13 F
5 3 1 13 F
1 3 7 8 F
5 3 7 8 F
3 7 8 9 F

