18
ModifiedRes-opt-7-3-5-15-200.log	Energy: -567268.0519701
N          0.93254       -0.89994        0.74504
H          0.54619       -0.87713        1.68335
C          0.58575        0.16718       -0.18741
H          0.70151       -0.25293       -1.19273
C          1.53831        1.36438       -0.02251
O          1.19747        2.38472        0.57675
C         -0.84491        0.62560        0.03121
S         -1.94075       -0.83643       -0.09923
C         -3.42306       -0.01059       -0.12829
N         -4.47492        0.53707       -0.15038
H         -0.95142        1.09849        1.00911
H         -1.11539        1.35402       -0.73530
C          1.91816       -1.79493        0.46253
O          2.57809       -1.79044       -0.57901
N          2.75210        1.16946       -0.59756
H          2.06227       -2.54772        1.25393
H          3.01864        0.24061       -0.91083
H          3.47219        1.85736       -0.41463
