18
ModifiedRes-opt-7-3-5-15-352.log	Energy: -567275.7647046
N          0.97259       -0.88663        0.75740
H          0.59503       -0.86186        1.67918
C          0.60511        0.16549       -0.17620
H          0.71643       -0.24504       -1.17044
C          1.54417        1.37427       -0.02943
O          1.19103        2.37755        0.52341
C         -0.83471        0.61387        0.04432
S         -1.95649       -0.82132       -0.17759
C         -3.44862        0.00199       -0.10205
N         -4.45611        0.52699       -0.05310
H         -0.96665        1.02799        1.03174
H         -1.09268        1.37238       -0.67775
C          1.91566       -1.80873        0.47447
O          2.53963       -1.84848       -0.54742
N          2.76302        1.19614       -0.56705
H          2.05942       -2.53360        1.27283
H          3.05478        0.30606       -0.90844
H          3.44601        1.90582       -0.42098
