%RWF=/scratch/bdw2292/Gau-ModifiedRes/,50GB
%Nosave
%Chk=ModifiedRes-sp-3-1-13-14-279.chk
%Mem=20GB
%Nproc=4
#P MP2/6-311++G** SP SCF=(qc,maxcycle=800) Guess=Indo MaxDisk=50GB

ModifiedRes Rotatable Bond SP Calculation on bme-nova.bme.utexas.edu

0 1
 N    1.063320    1.144837   -0.063347
 H    1.870465    1.281953   -0.664690
 C    0.564618   -0.236012    0.093623
 H    0.013691   -0.308526    1.039623
 C    1.767420   -1.209065    0.106348
 O    2.713441   -1.027715   -0.662847
 C   -0.353761   -0.669718   -1.071189
 S   -1.941397    0.265917   -1.089085
 C   -2.603132   -0.419960    0.321447
 N   -3.020405   -0.878621    1.333600
 H    0.138054   -0.455372   -2.024146
 H   -0.574525   -1.739156   -1.041341
 C    0.627031    2.191126    0.694460
 O   -0.423201    2.800382    0.491555
 N    1.666406   -2.275778    0.944960
 H    1.323264    2.462204    1.504352
 H    0.882896   -2.390621    1.577229
 H    2.443479   -2.922666    0.947828

