%RWF=/scratch/bdw2292/Gau-ModifiedRes/,50GB
%Nosave
%Chk=ModifiedRes-opt-13-1-3-7-289.chk
%Mem=20GB
%Nproc=4
#P opt=(,maxcycle=400) HF/6-31G* MaxDisk=50GB

ModifiedRes Rotatable Bond Optimization on bme-nova.bme.utexas.edu

0 1
 N    0.975586   -0.965505    0.699343
 H    0.583598   -0.898682    1.635140
 C    0.634337    0.117933   -0.243833
 H   -0.288488    0.570217    0.139398
 C    0.373689   -0.419143   -1.679902
 O    1.205252   -0.289353   -2.577712
 C    1.753221    1.181481   -0.320075
 S    2.140278    1.847202    1.350129
 C    3.136324    3.153170    0.912139
 N    3.834604    4.071543    0.640201
 H    2.653369    0.752270   -0.768841
 H    1.428067    2.009820   -0.953697
 C    1.917755   -1.942574    0.531287
 O    2.620964   -2.076158   -0.467408
 N   -0.841979   -1.001999   -1.872760
 H    1.984632   -2.633074    1.388364
 H   -1.487498   -1.164908   -1.110291
 H   -1.013212   -1.362940   -2.801280

7 3 1 13 F
5 3 1 13 F
3 1 13 14 F
7 3 5 15 F
1 3 5 6 F
1 3 5 15 F
7 3 5 6 F
1 3 7 8 F
5 3 7 8 F
3 7 8 9 F

