%RWF=/scratch/bdw2292/Gau-ModifiedRes/,50GB
%Nosave
%Chk=ModifiedRes-opt-7-3-5-15-333.chk
%Mem=20GB
%Nproc=4
#P opt=(,maxcycle=400) HF/6-31G* MaxDisk=50GB

ModifiedRes Rotatable Bond Optimization on bme-nova.bme.utexas.edu

0 1
 N    0.954285   -0.926768    0.744382
 H    0.581622   -0.899719    1.689174
 C    0.571259    0.140520   -0.208524
 H    0.683493   -0.279547   -1.217126
 C    1.549355    1.351664   -0.054943
 O    2.711315    1.175139    0.303903
 C   -0.895299    0.571541    0.011873
 S   -2.046350   -0.866108   -0.098919
 C   -3.511302   -0.003656   -0.113149
 N   -4.539968    0.584287   -0.123997
 H   -1.009041    1.048059    0.989291
 H   -1.196341    1.292420   -0.749587
 C    1.946939   -1.834698    0.495090
 O    2.608978   -1.875302   -0.544855
 N    1.089863    2.608873   -0.317978
 H    2.097644   -2.555987    1.315249
 H    0.254348    2.806181   -0.851774
 H    1.774201    3.341802   -0.186707

7 3 5 15 F
1 3 5 6 F
1 3 5 15 F
7 3 5 6 F
3 1 13 14 F
7 3 1 13 F
5 3 1 13 F
1 3 7 8 F
5 3 7 8 F
3 7 8 9 F

