18
ModifiedRes-sp-3-7-8-9-191.log	Energy: -567370.4304750
N          1.01530       -0.90526        0.77734
H          0.65319       -0.89597        1.72653
C          0.60665        0.15559       -0.16635
H          0.71063       -0.25798       -1.17908
C          1.54284        1.37981       -0.02651
O          1.15607        2.39647        0.55415
C         -0.85624        0.58573        0.06902
S         -1.98762       -0.85220       -0.13817
C         -3.47322       -0.02603       -0.14007
N         -4.50166        0.56227       -0.10836
H         -0.97992        1.00304        1.07075
H         -1.12226        1.34959       -0.66560
C          1.98454       -1.81749        0.47065
O          2.59556       -1.81748       -0.60393
N          2.77909        1.24339       -0.57621
H          2.17535       -2.55832        1.26306
H          3.06728        0.36334       -0.99488
H          3.40822        2.03108       -0.50167
