%RWF=/scratch/bdw2292/Gau-ModifiedRes/,50GB
%Nosave
%Chk=ModifiedRes-opt-3-1-13-14-223.chk
%Mem=20GB
%Nproc=4
#P opt=(,maxcycle=400) HF/6-31G* MaxDisk=50GB

ModifiedRes Rotatable Bond Optimization on bme-nova.bme.utexas.edu

0 1
 N    0.965031   -0.945692    0.759791
 H    0.579268   -0.924117    1.698533
 C    0.599939    0.133616   -0.181936
 H    0.708469   -0.280163   -1.193293
 C    1.566039    1.334988   -0.011977
 O    1.200158    2.338232    0.601374
 C   -0.857906    0.596933    0.026103
 S   -2.028314   -0.820183   -0.104375
 C   -3.489559    0.047945   -0.143503
 N   -4.521281    0.630819   -0.172494
 H   -0.973065    1.073556    1.002254
 H   -1.115398    1.329711   -0.742430
 C    1.946023   -1.867137    0.534003
 O    1.807982   -3.064432    0.784914
 N    2.801511    1.214250   -0.569715
 H    2.886263   -1.460368    0.131366
 H    3.057705    0.436835   -1.165785
 H    3.424834    2.000107   -0.442029

3 1 13 14 F
7 3 1 13 F
5 3 1 13 F
7 3 5 15 F
1 3 5 6 F
1 3 5 15 F
7 3 5 6 F
1 3 7 8 F
5 3 7 8 F
3 7 8 9 F

