18
ModifiedRes-sp-3-1-13-14-279.log	Energy: -567344.0469567
N          0.70148        1.48493       -0.07843
H          1.39996        1.88071       -0.70083
C          0.69777        0.01772        0.08702
H          0.22820       -0.22952        1.04727
C          2.15666       -0.49689        0.06386
O          2.96671       -0.01392       -0.72991
C         -0.05326       -0.70479       -1.05414
S         -1.86229       -0.35419       -1.02590
C         -2.21871       -1.21388        0.39951
N         -2.43145       -1.77995        1.42091
H          0.31300       -0.34369       -2.01924
H          0.09731       -1.78628       -1.02215
C         -0.03935        2.32931        0.69457
O         -1.23789        2.55103        0.52222
N          2.44064       -1.53117        0.90110
H          0.54737        2.82224        1.48636
H          1.75779       -1.89788        1.55385
H          3.38912       -1.88086        0.88072
