%RWF=/scratch/bdw2292/Gau-ModifiedRes/,50GB
%Nosave
%Chk=ModifiedRes-sp-1-3-7-8-249.chk
%Mem=20GB
%Nproc=4
#P MP2/6-311++G** SP SCF=(qc,maxcycle=800) Guess=Indo MaxDisk=50GB

ModifiedRes Rotatable Bond SP Calculation on bme-nova.bme.utexas.edu

0 1
 N    1.498008   -1.100515    0.654793
 H    1.361781   -1.347130    1.630764
 C    0.622912   -0.084468    0.032468
 H    0.716645   -0.216382   -1.053358
 C    1.112536    1.332946    0.411011
 O    0.644980    1.912098    1.394173
 C   -0.850304   -0.304591    0.481203
 S   -1.859015   -0.878507   -0.947431
 C   -3.391152   -0.855366   -0.211252
 N   -4.455926   -0.806587    0.307574
 H   -0.885208   -1.043991    1.283180
 H   -1.269122    0.633739    0.851767
 C    2.654545   -1.505396    0.049851
 O    3.017288   -1.091671   -1.057150
 N    2.085508    1.846911   -0.387804
 H    3.235010   -2.240761    0.629158
 H    2.540398    1.261726   -1.082601
 H    2.424225    2.772990   -0.165345

