18
ModifiedRes-opt-7-3-5-15-163.log	Energy: -567275.7647159
N          0.97266       -0.88634        0.75772
H          0.59549       -0.86109        1.67962
C          0.60520        0.16555       -0.17614
H          0.71676       -0.24514       -1.17028
C          1.54432        1.37431       -0.02953
O          1.19114        2.37783        0.52285
C         -0.83467        0.61394        0.04401
S         -1.95645       -0.82126       -0.17799
C         -3.44850        0.00209       -0.10181
N         -4.45602        0.52701       -0.05245
H         -0.96683        1.02818        1.03134
H         -1.09247        1.37236       -0.67822
C          1.91531       -1.80877        0.47471
O          2.53892       -1.84897       -0.54741
N          2.76327        1.19576       -0.56677
H          2.05907       -2.53355        1.27314
H          3.05495        0.30549       -0.90767
H          3.44642        1.90526       -0.42055
