18
ModifiedRes-opt-13-1-3-7-213.log	Energy: -567275.7647379
N          0.97242       -0.88659        0.75744
H          0.59637       -0.86058        1.67980
C          0.60510        0.16553       -0.17623
H          0.71652       -0.24507       -1.17041
C          1.54426        1.37422       -0.02944
O          1.19128        2.37742        0.52370
C         -0.83472        0.61394        0.04413
S         -1.95641       -0.82139       -0.17701
C         -3.44851        0.00205       -0.10219
N         -4.45596        0.52722       -0.05371
H         -0.96659        1.02861        1.03133
H         -1.09274        1.37210       -0.67832
C          1.91553       -1.80862        0.47444
O          2.53905       -1.84871       -0.54774
N          2.76297        1.19600       -0.56732
H          2.05970       -2.53323        1.27296
H          3.05457        0.30592       -0.90880
H          3.44611        1.90555       -0.42127
