18
ModifiedRes-sp-3-7-8-9-251.log	Energy: -567368.8730499
N          1.01539        0.96788       -0.78727
H          0.82301        1.03276       -1.78266
C          0.49465       -0.17415       -0.00773
H          0.30325        0.18520        1.01301
C          1.56214       -1.29412        0.04472
O          1.45637       -2.28882       -0.67709
C         -0.80958       -0.73925       -0.61193
S         -2.10333        0.57090       -0.66473
C         -3.14959       -0.01550        0.54031
N         -3.84807       -0.42138        1.40754
H         -0.64826       -1.08860       -1.63413
H         -1.11674       -1.59635       -0.00852
C          1.77677        1.94823       -0.21720
O          2.14010        1.92342        0.96437
N          2.58502       -1.09398        0.91770
H          2.04658        2.76625       -0.90390
H          2.66771       -0.21636        1.42346
H          3.29324       -1.81291        0.97546
