18
ModifiedRes-opt-3-1-13-14-307.log	Energy: -567275.7647065
N          0.97249       -0.88619        0.75783
H          0.59604       -0.86034        1.68004
C          0.60528        0.16573       -0.17609
H          0.71701       -0.24509       -1.17014
C          1.54459        1.37426       -0.02950
O          1.19167        2.37789        0.52291
C         -0.83460        0.61425        0.04380
S         -1.95633       -0.82115       -0.17739
C         -3.44847        0.00208       -0.10198
N         -4.45584        0.52735       -0.05308
H         -0.96683        1.02898        1.03092
H         -1.09237        1.37223       -0.67891
C          1.91468       -1.80908        0.47456
O          2.53800       -1.84946       -0.54773
N          2.76351        1.19540       -0.56675
H          2.05830       -2.53397        1.27292
H          3.05483        0.30523       -0.90827
H          3.44696        1.90463       -0.42056
