18
ModifiedRes-opt-3-1-13-14-111.log	Energy: -567271.4137974
N          1.21926        0.83927       -0.31583
H          1.21108        0.94598       -1.30965
C          0.66283       -0.35658        0.26852
H          0.61179       -0.20102        1.34078
C          1.53002       -1.61308        0.08262
O          1.06480       -2.69347        0.31058
C         -0.74747       -0.66236       -0.24236
S         -1.83305        0.77757        0.08860
C         -3.34787        0.00447       -0.04045
N         -4.37016       -0.48635       -0.12367
H         -0.73991       -0.85970       -1.30576
H         -1.13524       -1.52733        0.26799
C          1.65051        1.92738        0.38068
O          2.08579        2.91208       -0.12433
N          2.80041       -1.41442       -0.30389
H          1.57057        1.80447        1.46076
H          3.17595       -0.51167       -0.47205
H          3.39510       -2.20914       -0.38000
