18
ModifiedRes-opt-13-1-3-7-062.log	Energy: -567275.7647398
N          0.97240       -0.88652        0.75751
H          0.59642       -0.86039        1.67989
C          0.60514        0.16554       -0.17622
H          0.71664       -0.24511       -1.17037
C          1.54429        1.37423       -0.02947
O          1.19121        2.37755        0.52337
C         -0.83469        0.61398        0.04398
S         -1.95641       -0.82137       -0.17732
C         -3.44851        0.00202       -0.10204
N         -4.45592        0.52723       -0.05324
H         -0.96673        1.02858        1.03118
H         -1.09265        1.37212       -0.67849
C          1.91545       -1.80863        0.47456
O          2.53890       -1.84882       -0.54764
N          2.76312        1.19587       -0.56704
H          2.05961       -2.53316        1.27314
H          3.05473        0.30578       -0.90849
H          3.44623        1.90545       -0.42105
