18
ModifiedRes-sp-13-1-3-7-043.log	Energy: -567362.6322153
N         -2.11524        0.65467        0.03735
H         -2.38957        1.63212        0.00093
C         -0.72736        0.30789        0.46181
H         -0.75570        0.10586        1.53787
C          0.17616        1.53132        0.14614
O         -0.05845        2.24794       -0.82793
C         -0.20837       -0.93985       -0.30181
S          1.33459       -1.59519        0.45771
C          2.50204       -0.71136       -0.40823
N          3.34414       -0.11456       -0.99076
H         -0.94013       -1.74429       -0.20755
H         -0.06741       -0.74758       -1.36724
C         -3.14892       -0.21153       -0.19673
O         -3.05837       -1.44225       -0.17317
N          1.20577        1.75090        1.00709
H         -4.10092        0.29898       -0.41630
H          1.40140        1.12432        1.77835
H          1.82955        2.51226        0.77658
