%RWF=/scratch/bdw2292/Gau-ModifiedRes/,50GB
%Nosave
%Chk=ModifiedRes-opt-3-7-8-9-071.chk
%Mem=20GB
%Nproc=4
#P opt=(,maxcycle=400) HF/6-31G* MaxDisk=50GB

ModifiedRes Rotatable Bond Optimization on bme-nova.bme.utexas.edu

0 1
 N    1.012622   -0.931761    0.758893
 H    0.657311   -0.928097    1.710510
 C    0.608116    0.136149   -0.178702
 H    0.707254   -0.282931   -1.189102
 C    1.571476    1.337459   -0.016063
 O    1.209165    2.343370    0.599234
 C   -0.855722    0.598104    0.035660
 S   -2.096519   -0.767306   -0.070739
 C   -1.797774   -1.633929    1.363485
 N   -1.599221   -2.247389    2.360348
 H   -0.947695    1.080145    1.012075
 H   -1.089379    1.320466   -0.750357
 C    2.013663   -1.817256    0.475432
 O    2.656545   -1.796848   -0.581207
 N    2.798010    1.201798   -0.586500
 H    2.195944   -2.558914    1.268913
 H    3.079507    0.320632   -1.006945
 H    3.441296    1.975608   -0.490634

3 7 8 9 F
3 1 13 14 F
7 3 1 13 F
5 3 1 13 F
7 3 5 15 F
1 3 5 6 F
1 3 5 15 F
7 3 5 6 F
1 3 7 8 F
5 3 7 8 F

