%RWF=/scratch/bdw2292/Gau-ModifiedRes/,50GB
%Nosave
%Chk=ModifiedRes-sp-3-1-13-14-111.chk
%Mem=20GB
%Nproc=4
#P MP2/6-311++G** SP SCF=(qc,maxcycle=800) Guess=Indo MaxDisk=50GB

ModifiedRes Rotatable Bond SP Calculation on bme-nova.bme.utexas.edu

0 1
 N    1.235996    0.914384   -0.339595
 H    1.663457    1.041803   -1.250958
 C    0.651911   -0.316399    0.223649
 H    0.542775   -0.182996    1.307392
 C    1.571442   -1.521400   -0.089544
 O    2.127675   -1.602894   -1.185161
 C   -0.731314   -0.617288   -0.384719
 S   -1.875709    0.808046   -0.126277
 C   -3.321104   -0.046113    0.144947
 N   -4.337721   -0.624145    0.336025
 H   -0.637648   -0.795306   -1.459559
 H   -1.167657   -1.501390    0.086953
 C    1.618607    1.937462    0.479697
 O    2.789772    2.241656    0.709454
 N    1.655817   -2.479466    0.873087
 H    0.770288    2.464636    0.947323
 H    1.252546   -2.358972    1.794108
 H    2.254442   -3.266891    0.663721

