18
ModifiedRes-opt-1-3-7-8-192.log	Energy: -567273.7882343
N          1.56855       -1.04027        0.74882
H          1.39367       -1.17851        1.72009
C          0.63785       -0.22467       -0.01353
H          0.80124       -0.46718       -1.05422
C          0.95168        1.25864        0.23712
O          0.39990        1.87283        1.10523
C         -0.78965       -0.57742        0.39756
S         -1.96261        0.08546       -0.84376
C         -3.42151       -0.30744       -0.05561
N         -4.40517       -0.56958        0.45127
H         -0.90249       -1.65063        0.43393
H         -1.02148       -0.14013        1.35637
C          2.78326       -1.37194        0.26086
O          3.17962       -1.07581       -0.82944
N          1.89856        1.77137       -0.57116
H          3.37967       -1.95599        0.95881
H          2.47314        1.17179       -1.12260
H          2.23863        2.68356       -0.35952
