18
ModifiedRes-opt-3-7-8-9-011.log	Energy: -567276.1065178
N          0.71079        0.70547       -1.05530
H          0.52492        0.43832       -1.99589
C          0.43395       -0.23664        0.01361
H          0.15851        0.34090        0.88533
C          1.69439       -1.05766        0.33430
O          1.82059       -2.18589       -0.05483
C         -0.69372       -1.19498       -0.35650
S         -2.28785       -0.40069       -0.76364
C         -2.66350        0.29699        0.74788
N         -2.92630        0.76864        1.74883
H         -0.43915       -1.76610       -1.23882
H         -0.85136       -1.90174        0.44298
C          1.23002        1.92705       -0.82543
O          1.56719        2.32982        0.25151
N          2.61043       -0.40499        1.06865
H          1.32173        2.53039       -1.72629
H          2.52770        0.57356        1.24236
H          3.48982       -0.84805        1.21669
