18
ModifiedRes-opt-1-3-7-8-324.log	Energy: -567275.7647235
N          0.97250       -0.88647        0.75755
H          0.59611       -0.86074        1.67978
C          0.60518        0.16562       -0.17608
H          0.71660       -0.24498       -1.17026
C          1.54429        1.37441       -0.02954
O          1.19072        2.37839        0.52178
C         -0.83466        0.61398        0.04424
S         -1.95632       -0.82135       -0.17762
C         -3.44848        0.00189       -0.10190
N         -4.45589        0.52709       -0.05279
H         -0.96677        1.02819        1.03160
H         -1.09256        1.37240       -0.67794
C          1.91525       -1.80881        0.47443
O          2.53869       -1.84898       -0.54779
N          2.76369        1.19534       -0.56550
H          2.05917       -2.53355        1.27287
H          3.05518        0.30535       -0.90726
H          3.44653        1.90536       -0.42047
