18
ModifiedRes-opt-3-7-8-9-341.log	Energy: -567276.1065009
N          0.71162        0.70540       -1.05547
H          0.52575        0.43830       -1.99605
C          0.43389       -0.23647        0.01359
H          0.15830        0.34136        0.88502
C          1.69406       -1.05770        0.33438
O          1.82068       -2.18535       -0.05626
C         -0.69387       -1.19447       -0.35697
S         -2.28785       -0.39979       -0.76400
C         -2.66378        0.29666        0.74799
N         -2.92704        0.76760        1.74915
H         -0.43932       -1.76527       -1.23948
H         -0.85173       -1.90161        0.44214
C          1.23108        1.92678       -0.82533
O          1.56775        2.32939        0.25182
N          2.60932       -0.40602        1.07063
H          1.32362        2.53010       -1.72611
H          2.52706        0.57265        1.24394
H          3.48890       -0.84898        1.21790
