18
ModifiedRes-sp-3-7-8-9-131.log	Energy: -567369.3603750
N         -0.63397        0.89315        0.72405
H         -0.03415        0.83499        1.54206
C         -0.61801       -0.19539       -0.27612
H         -0.84874        0.25672       -1.25074
C         -1.71205       -1.24026        0.05193
O         -1.40200       -2.35326        0.48301
C          0.76033       -0.88669       -0.34421
S          2.03207        0.30420       -0.94226
C          3.22882        0.03802        0.23581
N          4.03176       -0.13392        1.09071
H          1.00726       -1.31466        0.62960
H          0.71986       -1.70173       -1.07047
C         -1.43695        1.98972        0.59294
O         -2.26065        2.11704       -0.32051
N         -2.99368       -0.84713       -0.17645
H         -1.29313        2.75219        1.37468
H         -3.19902        0.09189       -0.50652
H         -3.72566       -1.51384        0.02730
