18
ModifiedRes-sp-13-1-3-7-081.log	Energy: -567362.4903436
N         -1.24090        1.07785        0.66602
H         -1.93682        0.96951        1.39861
C         -0.95675       -0.06138       -0.23624
H         -1.00002        0.33216       -1.26029
C         -2.03335       -1.16284       -0.05813
O         -1.78405       -2.19958        0.55784
C          0.43940       -0.68813        0.02539
S          1.87735        0.44710       -0.17470
C          3.11381       -0.71146       -0.01495
N          3.96189       -1.53715        0.06622
H          0.46867       -1.08040        1.04518
H          0.58164       -1.50191       -0.69092
C         -0.77571        2.34920        0.48059
O         -0.06049        2.68359       -0.46423
N         -3.24370       -0.89776       -0.62030
H         -1.09675        3.06052        1.25846
H         -3.41003       -0.04672       -1.14394
H         -3.95323       -1.61174       -0.52435
