%RWF=/scratch/bdw2292/Gau-ModifiedRes/,50GB
%Nosave
%Chk=ModifiedRes-sp-3-7-8-9-191.chk
%Mem=20GB
%Nproc=4
#P MP2/6-311++G** SP SCF=(qc,maxcycle=800) Guess=Indo MaxDisk=50GB

ModifiedRes Rotatable Bond SP Calculation on bme-nova.bme.utexas.edu

0 1
 N    0.990636   -0.912948    0.791849
 H    0.623209   -0.894432    1.738862
 C    0.601594    0.148830   -0.159055
 H    0.705908   -0.270798   -1.169257
 C    1.553160    1.361150   -0.019363
 O    1.176603    2.385550    0.554369
 C   -0.856782    0.599437    0.065800
 S   -2.005975   -0.824288   -0.141408
 C   -3.480410    0.021504   -0.155757
 N   -4.501101    0.623546   -0.132745
 H   -0.980679    1.023010    1.064874
 H   -1.108370    1.363339   -0.673853
 C    1.949415   -1.839379    0.495000
 O    2.566582   -1.852489   -0.575980
 N    2.790640    1.205771   -0.561203
 H    2.125778   -2.578982    1.291894
 H    3.069514    0.320039   -0.974155
 H    3.429751    1.985381   -0.486605

