18
ModifiedRes-sp-13-1-3-7-005.log	Energy: -567351.5714880
N          1.36125        1.29246        0.34148
H          2.18975        1.51664        0.88748
C          0.97890       -0.13415        0.51777
H          0.92156       -0.27739        1.60553
C          2.03862       -1.14076       -0.04119
O          1.70036       -2.27624       -0.38016
C         -0.38073       -0.59443       -0.10067
S         -1.84989        0.36437        0.48793
C         -3.07186       -0.71334       -0.00384
N         -3.91550       -1.46190       -0.37278
H         -0.33863       -0.49766       -1.18809
H         -0.54810       -1.63460        0.19290
C          0.73400        2.38222       -0.19687
O         -0.31688        2.37919       -0.83067
N          3.34931       -0.77155       -0.02050
H          1.29953        3.31442       -0.02830
H          3.64703        0.18985        0.06498
H          4.00022       -1.47503       -0.34343
