%RWF=/scratch/bdw2292/Gau-ModifiedRes/,50GB
%Nosave
%Chk=ModifiedRes-opt-3-1-13-14-083.chk
%Mem=20GB
%Nproc=4
#P opt=(,maxcycle=400) HF/6-31G* MaxDisk=50GB

ModifiedRes Rotatable Bond Optimization on bme-nova.bme.utexas.edu

0 1
 N    0.962005   -0.938114    0.749806
 H    0.603896   -0.916989    1.699754
 C    0.584688    0.127253   -0.196237
 H    0.680435   -0.302751   -1.202341
 C    1.555338    1.331601   -0.048974
 O    1.186762    2.342789    0.553008
 C   -0.866760    0.604779    0.021315
 S   -2.038377   -0.812020   -0.077611
 C   -3.504011    0.047687   -0.114754
 N   -4.540493    0.621397   -0.142151
 H   -0.967187    1.094999    0.992312
 H   -1.127367    1.327546   -0.755514
 C    1.943323   -1.837182    0.455130
 O    3.144304   -1.615111    0.618918
 N    2.788330    1.207884   -0.609194
 H    1.564440   -2.779039    0.027619
 H    3.224811    0.299628   -0.714610
 H    3.388263    2.015642   -0.508675

3 1 13 14 F
7 3 1 13 F
5 3 1 13 F
7 3 5 15 F
1 3 5 6 F
1 3 5 15 F
7 3 5 6 F
1 3 7 8 F
5 3 7 8 F
3 7 8 9 F

