18
ModifiedRes-opt-3-7-8-9-161.log	Energy: -567275.7647140
N          0.97243       -0.88681        0.75727
H          0.59758       -0.86004        1.68011
C          0.60502        0.16550       -0.17610
H          0.71625       -0.24496       -1.17035
C          1.54415        1.37427       -0.02944
O          1.19103        2.37761        0.52338
C         -0.83481        0.61380        0.04453
S         -1.95646       -0.82166       -0.17641
C         -3.44856        0.00189       -0.10245
N         -4.45581        0.52752       -0.05446
H         -0.96663        1.02838        1.03176
H         -1.09303        1.37191       -0.67787
C          1.91593       -1.80842        0.47420
O          2.53904       -1.84851       -0.54822
N          2.76298        1.19598       -0.56694
H          2.06066       -2.53282        1.27281
H          3.05450        0.30616       -0.90912
H          3.44583        1.90594       -0.42158
