18
ModifiedRes-opt-7-3-5-15-125.log	Energy: -567275.7647398
N          0.97240       -0.88652        0.75749
H          0.59640       -0.86039        1.67986
C          0.60515        0.16557       -0.17622
H          0.71662       -0.24506       -1.17038
C          1.54434        1.37425       -0.02948
O          1.19127        2.37766        0.52322
C         -0.83468        0.61401        0.04402
S         -1.95641       -0.82133       -0.17730
C         -3.44850        0.00206       -0.10203
N         -4.45597        0.52717       -0.05326
H         -0.96671        1.02858        1.03123
H         -1.09265        1.37217       -0.67842
C          1.91538       -1.80869        0.47454
O          2.53883       -1.84891       -0.54767
N          2.76319        1.19578       -0.56691
H          2.05949       -2.53324        1.27311
H          3.05474        0.30568       -0.90837
H          3.44633        1.90533       -0.42092
