%RWF=/scratch/bdw2292/Gau-ModifiedRes/,50GB
%Nosave
%Chk=ModifiedRes-sp-1-3-7-8-211.chk
%Mem=20GB
%Nproc=4
#P MP2/6-311++G** SP SCF=(qc,maxcycle=800) Guess=Indo MaxDisk=50GB

ModifiedRes Rotatable Bond SP Calculation on bme-nova.bme.utexas.edu

0 1
 N    1.574592   -1.086679    0.743285
 H    1.419144   -1.264515    1.731372
 C    0.644337   -0.198662    0.016266
 H    0.785845   -0.405700   -1.052939
 C    1.004128    1.280189    0.294427
 O    0.458548    1.894398    1.214133
 C   -0.813820   -0.506645    0.436585
 S   -1.962409   -0.170714   -0.962955
 C   -3.433594   -0.425733   -0.149784
 N   -4.472229   -0.597996    0.395695
 H   -0.891618   -1.553400    0.739686
 H   -1.095804    0.129283    1.279687
 C    2.781406   -1.441189    0.209296
 O    3.151144   -1.087486   -0.915893
 N    1.959733    1.809158   -0.515652
 H    3.396475   -2.078352    0.864281
 H    2.486479    1.212073   -1.146621
 H    2.210498    2.776029   -0.360645

