%RWF=/scratch/bdw2292/Gau-ModifiedRes/,50GB
%Nosave
%Chk=ModifiedRes-esp.chk
%Mem=20GB
%Nproc=4
#P MP2/6-311++G(2d,2p) Sp Density=MP2 SCF=Save Guess=Huckel MaxDisk=50GB

 ModifiedRes Gaussian Optimization on bme-nova.bme.utexas.edu

0 1
N	       0.932536   -0.899942    0.745038
H	       0.546190   -0.877134    1.683345
C	       0.585752    0.167181   -0.187407
H	       0.701508   -0.252932   -1.192732
C	       1.538312    1.364379   -0.022511
O	       1.197465    2.384723    0.576751
C	      -0.844909    0.625602    0.031211
S	      -1.940748   -0.836431   -0.099232
C	      -3.423059   -0.010591   -0.128290
N	      -4.474923    0.537070   -0.150383
H	      -0.951417    1.098489    1.009115
H	      -1.115391    1.354023   -0.735305
C	       1.918163   -1.794929    0.462525
O	       2.578088   -1.790441   -0.579006
N	       2.752103    1.169457   -0.597556
H	       2.062271   -2.547720    1.253931
H	       3.018635    0.240610   -0.910834
H	       3.472185    1.857355   -0.414625
	
