#Put Keywords Here, check Charge and Multiplicity.

 ModifiedRes Gaussian Optimization on bme-nova.bme.utexas.edu

0 1
N           5.03000        11.60800        13.48600
H           4.33800        10.94500        13.20100
C           6.38500        11.13600        13.58600
H           6.71800        11.62300        14.39300
C           7.20900        11.52400        12.39300
O           8.43800        11.51300        12.45600
C           5.76200         9.49600        13.04500
S           4.16900         9.08800        13.79200
C           4.06000         7.52800        12.97600
N           3.97900         6.50300        12.44600
H           5.64700         9.55800        11.98300
H           6.46700         8.73200        13.29900
C           4.60900        12.85900        13.74100
O           5.33200        13.71400        14.25600
N           6.56200        11.76800        11.23800
H           3.63970        13.11410        13.49520
H           5.57770        11.77070        11.21620
H           7.07310        11.94370        10.41510

