6
methanol-opt-6-1-2-3-173.log	Energy:  -72203.5791339
O         -0.73586        0.11951       -0.00000
C          0.65517       -0.01964       -0.00000
H          1.07648        0.97511       -0.00045
H          1.01143       -0.54393       -0.88342
H          1.01151       -0.54313        0.88387
H         -1.14360       -0.72625        0.00003
