6
methanol-opt-6-1-2-3-257.log	Energy:  -72203.5791320
O          0.73584        0.11951       -0.00001
C         -0.65517       -0.01964        0.00000
H         -1.01137       -0.54439       -0.88317
H         -1.07653        0.97508       -0.00096
H         -1.01147       -0.54269        0.88412
H          1.14363       -0.72619        0.00006
