6
methanol-opt-6-1-2-3-285.log	Energy:  -72203.5790630
O          0.73593        0.11953        0.00000
C         -0.65517       -0.01963       -0.00000
H         -1.01147       -0.54484       -0.88296
H         -1.07691        0.97503       -0.00143
H         -1.01185       -0.54237        0.88428
H          1.14382       -0.72630        0.00010
