6
methanol-opt-6-1-2-3-145.log	Energy:  -72203.5791044
O          0.73588        0.11954        0.00002
C         -0.65520       -0.01963        0.00001
H         -1.07696        0.97497       -0.00060
H         -1.01145       -0.54325        0.88383
H         -1.01122       -0.54410       -0.88340
H          1.14377       -0.72615       -0.00007
