6
methanol-opt-6-1-2-3-117.log	Energy:  -72203.5791327
O          0.73587        0.11950       -0.00000
C         -0.65518       -0.01965        0.00000
H         -1.01151       -0.54297        0.88396
H         -1.01149       -0.54403       -0.88333
H         -1.07650        0.97511       -0.00062
H          1.14359       -0.72625       -0.00000
