6
methanol-opt-6-1-2-3-201.log	Energy:  -72203.5790210
O         -0.73595        0.11955        0.00000
C          0.65520       -0.01962       -0.00000
H          1.07723        0.97493       -0.00122
H          1.01141       -0.54476       -0.88303
H          1.01173       -0.54265        0.88417
H         -1.14401       -0.72619        0.00009
