6
methanol-opt-6-1-2-3-341.log	Energy:  -72203.5791289
O         -0.73589        0.11950        0.00001
C          0.65521       -0.01964        0.00001
H          1.01154       -0.54295        0.88395
H          1.07636        0.97517       -0.00068
H          1.01140       -0.54402       -0.88337
H         -1.14343       -0.72633       -0.00003
