6
methanol-opt.log	Energy:  -72188.6972423
O          0.75328        0.12353        0.00000
C         -0.66916       -0.01894        0.00000
H         -1.02805       -0.54574        0.89107
H         -1.02805       -0.54575       -0.89106
H         -1.08197        0.99013       -0.00001
H          1.12677       -0.77325        0.00000
